128
graphite
C	2.0146	0.0879	-1.1714
C	-1.3668	0.3486	4.0436
C	-0.3717	-0.2113	6.9102
C	-0.3430	-0.2015	9.6569
C	0.7349	2.2681	-1.2145
C	5.6468	6.5362	-0.9678
C	4.4642	0.1120	-0.9764
C	-5.0987	6.7070	4.4818
C	-0.0760	2.4732	4.3486
C	5.9936	0.2927	4.1720
C	9.3868	0.1590	-1.0989
C	3.2198	2.2406	-1.0890
C	-1.7260	6.4853	-0.9466
C	1.0866	0.3563	4.2508
C	2.3064	6.7739	4.3694
C	-2.5734	2.4336	4.3005
C	-1.6232	1.9372	6.9015
C	3.3062	6.1436	7.0962
C	2.0872	-0.2487	6.9061
C	-4.0442	6.2021	9.6956
C	0.8173	1.9731	9.6075
C	7.0526	-0.1758	9.6217
C	6.9913	-0.2515	6.8955
C	0.8603	1.8874	6.9449
C	-4.0681	6.1667	7.0634
C	2.0332	-0.1513	9.6095
C	3.3087	6.2323	9.8900
C	-1.5682	1.9411	9.5920
C	-0.4337	4.4081	-1.1138
C	4.4789	4.4230	-0.7377
C	6.9559	0.1527	-0.9503
C	-3.7922	4.5787	4.3574
C	1.1103	4.6040	4.5163
C	3.5308	0.2939	4.2298
C	-2.8923	3.9736	6.9935
C	2.0735	4.0457	7.2058
C	4.5804	-0.2390	7.0979
C	-2.7841	4.0987	9.6545
C	2.0445	4.0618	9.6968
C	4.5378	-0.2012	9.7033
C	2.0441	4.3267	-1.0204
C	3.2277	6.5068	-0.8868
C	0.8019	6.5035	-0.8717
C	3.5594	4.6312	4.3607
C	2.3649	2.4712	4.2315
C	4.8078	2.4387	4.1408
C	-0.3795	4.0357	7.1095
C	0.8781	6.1482	7.2129
C	-1.6041	6.1809	7.0773
C	4.5165	4.0765	9.8540
C	3.2966	1.9185	9.7414
C	5.7808	1.9662	9.6770
C	5.6586	2.2673	-0.8334
C	8.1417	2.2755	-1.1633
C	6.9613	4.3586	-0.8690
C	-0.1798	6.6977	4.3526
C	-2.6534	6.7099	4.5007
C	-1.3708	4.5887	4.5038
C	3.2859	1.8999	7.0017
C	5.7924	1.8501	6.9469
C	4.5094	3.9739	7.0151
C	0.8540	6.1821	9.8090
C	-1.6276	6.2287	9.6876
C	-0.3960	4.0659	9.6635
C	1.9462	1.5089	-1.1246
C	5.6841	7.9582	-1.1360
C	-1.7184	7.8852	-0.9981
C	3.5134	7.4441	4.2500
C	-0.1433	1.0916	4.1783
C	7.2367	1.0375	4.1717
C	-0.4056	1.2108	6.9231
C	3.3209	7.5636	6.9165
C	-4.0909	7.5815	7.0041
C	4.5555	6.9090	9.7675
C	0.8210	0.5339	9.5564
C	8.2680	0.5088	9.6876
C	0.8097	3.6577	-1.1613
C	4.4553	5.8122	-0.8415
C	0.7860	7.9425	-0.9923
C	4.8063	5.3035	4.4512
C	1.1750	3.1672	4.4939
C	4.7572	1.0074	4.1121
C	3.2824	7.9263	-0.9479
C	3.2904	3.6676	-0.9593
C	-0.4503	5.7811	-0.9100
C	2.3033	1.0564	4.1473
C	2.3426	5.3427	4.4938
C	6.0353	3.1731	4.2917
C	-1.6414	3.3609	7.0086
C	2.0821	5.4437	7.2399
C	-1.5772	7.5985	7.0470
C	5.7754	4.7998	9.7729
C	2.0679	2.6361	9.7035
C	5.7825	0.5391	9.6520
C	0.8580	7.5588	7.0169
C	0.8073	3.2929	7.0878
C	-2.8408	5.4364	6.9366
C	3.2877	0.5313	9.7141
C	3.2611	4.8049	9.7588
C	7.0319	2.6765	9.6799
C	4.4131	1.5313	-0.9357
C	9.3356	1.5767	-1.2318
C	6.8731	5.7768	-0.9370
C	1.0600	7.4113	4.3138
C	-3.8824	7.4302	4.4262
C	-1.3285	3.1361	4.3797
C	2.0755	1.1657	6.9640
C	7.0197	1.1887	6.9585
C	4.5502	5.3969	7.0989
C	2.0995	6.9153	9.7555
C	-2.8088	6.9469	9.6234
C	-0.3992	2.6777	9.6065
C	2.0216	5.7663	-0.8823
C	3.5463	3.2045	4.1755
C	-0.3838	5.4959	7.1700
C	4.5466	2.6757	9.8055
C	6.9219	1.5861	-1.0143
C	8.1659	3.6803	-1.0246
C	5.7083	3.6998	-0.8071
C	-1.4413	7.4106	4.3903
C	-2.5729	5.3083	4.4830
C	-0.1519	5.2947	4.5436
C	4.5550	1.1885	7.0120
C	5.7019	3.2752	6.9286
C	3.2873	3.2999	7.0558
C	-0.3494	6.9015	9.7518
C	-1.5859	4.8166	9.7445
C	0.8286	4.7556	9.7111
128
graphite
C	2.2491	0.0044	12.1898
C	8.2923	0.3755	4.2696
C	4.6976	7.8454	6.2576
C	4.6851	7.6659	8.9035
C	1.0537	2.0727	12.0065
C	5.8702	6.1917	11.6729
C	4.6515	-0.0014	12.2008
C	4.7061	6.5803	3.7199
C	-0.1103	2.4612	4.0535
C	5.8899	0.3813	4.2587
C	9.4564	-0.0130	12.2227
C	3.4561	2.0669	12.0175
C	-1.3371	6.2092	11.6400
C	1.0851	0.3930	4.2368
C	2.3037	6.5861	3.7089
C	7.0969	2.4438	4.0864
C	8.2838	1.6407	6.8073
C	3.4906	5.7830	6.4298
C	-2.5096	7.8628	6.2247
C	5.8805	5.5976	9.0867
C	1.0641	1.4786	9.4204
C	2.2827	7.6717	8.8926
C	2.2952	7.8512	6.2466
C	1.0766	1.6581	6.7744
C	5.8930	5.7772	6.4408
C	-2.5221	7.6833	8.8706
C	3.4781	5.6034	9.0758
C	8.2713	1.4611	9.4532
C	-0.1417	4.1409	11.8233
C	4.6632	4.1293	11.8452
C	7.0540	-0.0072	12.2118
C	5.9015	4.5120	3.9032
C	1.0967	4.5236	3.8812
C	3.4875	0.3872	4.2477
C	7.0884	3.7089	6.6240
C	2.2836	3.7205	6.6021
C	-0.1072	7.8570	6.2356
C	7.0759	3.5294	9.2700
C	2.2711	3.5410	9.2481
C	-0.1197	7.6775	8.8816
C	2.2607	4.1351	11.8342
C	3.4678	6.1976	11.6620
C	1.0653	6.2034	11.6510
C	3.4991	4.5178	3.8922
C	2.2921	2.4554	4.0645
C	4.6945	2.4496	4.0754
C	-0.1188	3.7264	6.5911
C	1.0882	5.7888	6.4189
C	-1.3142	5.7946	6.4079
C	4.6735	3.5352	9.2590
C	3.4665	1.4728	9.4313
C	5.8689	1.4670	9.4423
C	5.8586	2.0611	12.0284
C	8.2610	2.0553	12.0394
C	7.0656	4.1235	11.8561
C	-0.0987	6.5919	3.6980
C	-2.5011	6.5977	3.6870
C	-1.3057	4.5294	3.8703
C	3.4790	1.6523	6.7854
C	5.8814	1.6465	6.7963
C	4.6860	3.7147	6.6131
C	1.0757	5.6092	9.0648
C	-1.3267	5.6150	9.0539
C	-0.1313	3.5468	9.2371
C	2.2530	1.3831	12.0732
C	-3.7356	7.5937	11.5125
C	-1.3332	7.5879	11.5235
C	3.5069	7.2702	3.6574
C	-0.1142	1.0829	4.1743
C	7.0931	1.0655	4.2071
C	-0.1265	0.9729	6.8232
C	3.4945	7.1602	6.3063
C	-3.7127	7.1776	6.2734
C	4.6812	6.2881	9.0218
C	1.0602	0.1008	9.5387
C	8.2675	0.0834	9.5716
C	1.0576	3.4514	11.8900
C	4.6670	5.5080	11.7286
C	1.0692	7.5821	11.5345
C	4.7023	5.2020	3.8407
C	1.0928	3.1453	4.0020
C	4.6906	1.0713	4.1962
C	3.4716	7.5762	11.5454
C	3.4600	3.4456	11.9009
C	-0.1378	5.5196	11.7067
C	2.2882	1.0771	4.1852
C	2.2998	5.2078	3.8297
C	5.8977	3.1337	4.0239
C	-1.3219	3.0412	6.6399
C	2.2875	5.0978	6.4786
C	-1.3103	7.1718	6.2844
C	5.8766	4.2199	9.2050
C	2.2672	2.1633	9.3664
C	5.8650	0.0892	9.5606
C	1.0921	7.1660	6.2953
C	1.0805	3.0353	6.6509
C	-2.5173	5.1094	6.4567
C	3.4626	0.0950	9.5496
C	3.4742	4.2257	9.1941
C	7.0720	2.1517	9.3883
C	4.6554	1.3773	12.0842
C	-0.1494	1.3889	12.0623
C	-2.5402	5.5254	11.6957
C	1.1044	7.2760	3.6464
C	-3.7004	7.2876	3.6246
C	-1.3096	3.1511	3.9910
C	2.2759	0.9671	6.8341
C	7.0807	0.9555	6.8560
C	4.6899	5.0920	6.4896
C	2.2788	6.2940	9.0109
C	-2.5260	6.3056	8.9889
C	-0.1352	2.1691	9.3554
C	2.2646	5.5138	11.7177
C	3.4952	3.1395	4.0130
C	-0.1149	5.1036	6.4676
C	4.6696	2.1575	9.3773
C	7.0578	1.3715	12.0952
C	-1.3448	3.4572	11.8790
C	5.8624	3.4398	11.9118
C	-1.2980	7.2818	3.6355
C	-2.5050	5.2194	3.8078
C	-0.1026	5.2136	3.8187
C	4.6783	0.9613	6.8451
C	5.8853	3.0237	6.6728
C	3.4829	3.0295	6.6618
C	-0.1236	6.2998	8.9999
C	-1.3306	4.2373	9.1721
C	1.0718	4.2315	9.1831
