108

C	1.2280	0.7090	3.3480
C	1.2280	0.7090	10.1480
C	1.2280	0.7090	16.9480
C	-0.0040	2.8429	3.3480
C	-0.0040	2.8429	10.1480
C	-0.0040	2.8429	16.9480
C	-1.2360	4.9768	3.3480
C	-1.2360	4.9768	10.1480
C	-1.2360	4.9768	16.9480
C	3.6920	0.7090	3.3480
C	3.6920	0.7090	10.1480
C	3.6920	0.7090	16.9480
C	2.4600	2.8429	3.3480
C	2.4600	2.8429	10.1480
C	2.4600	2.8429	16.9480
C	1.2280	4.9768	3.3480
C	1.2280	4.9768	10.1480
C	1.2280	4.9768	16.9480
C	6.1560	0.7090	3.3480
C	6.1560	0.7090	10.1480
C	6.1560	0.7090	16.9480
C	4.9240	2.8429	3.3480
C	4.9240	2.8429	10.1480
C	4.9240	2.8429	16.9480
C	3.6920	4.9768	3.3480
C	3.6920	4.9768	10.1480
C	3.6920	4.9768	16.9480
C	0.0000	0.0000	3.3480
C	0.0000	0.0000	10.1480
C	0.0000	0.0000	16.9480
C	-1.2320	2.1339	3.3480
C	-1.2320	2.1339	10.1480
C	-1.2320	2.1339	16.9480
C	-2.4640	4.2678	3.3480
C	-2.4640	4.2678	10.1480
C	-2.4640	4.2678	16.9480
C	2.4640	0.0000	3.3480
C	2.4640	0.0000	10.1480
C	2.4640	0.0000	16.9480
C	1.2320	2.1339	3.3480
C	1.2320	2.1339	10.1480
C	1.2320	2.1339	16.9480
C	0.0000	4.2678	3.3480
C	0.0000	4.2678	10.1480
C	0.0000	4.2678	16.9480
C	4.9280	0.0000	3.3480
C	4.9280	0.0000	10.1480
C	4.9280	0.0000	16.9480
C	3.6960	2.1339	3.3480
C	3.6960	2.1339	10.1480
C	3.6960	2.1339	16.9480
C	2.4640	4.2678	3.3480
C	2.4640	4.2678	10.1480
C	2.4640	4.2678	16.9480
C	-0.0000	1.4180	0.0000
C	-0.0000	1.4180	6.8000
C	-0.0000	1.4180	13.6000
C	-1.2320	3.5519	0.0000
C	-1.2320	3.5519	6.8000
C	-1.2320	3.5519	13.6000
C	-2.4640	5.6858	0.0000
C	-2.4640	5.6858	6.8000
C	-2.4640	5.6858	13.6000
C	2.4640	1.4180	0.0000
C	2.4640	1.4180	6.8000
C	2.4640	1.4180	13.6000
C	1.2320	3.5519	0.0000
C	1.2320	3.5519	6.8000
C	1.2320	3.5519	13.6000
C	-0.0000	5.6858	0.0000
C	-0.0000	5.6858	6.8000
C	-0.0000	5.6858	13.6000
C	4.9280	1.4180	0.0000
C	4.9280	1.4180	6.8000
C	4.9280	1.4180	13.6000
C	3.6960	3.5519	0.0000
C	3.6960	3.5519	6.8000
C	3.6960	3.5519	13.6000
C	2.4640	5.6858	0.0000
C	2.4640	5.6858	6.8000
C	2.4640	5.6858	13.6000
C	0.0000	0.0000	0.0000
C	0.0000	0.0000	6.8000
C	0.0000	0.0000	13.6000
C	-1.2320	2.1339	0.0000
C	-1.2320	2.1339	6.8000
C	-1.2320	2.1339	13.6000
C	-2.4640	4.2678	0.0000
C	-2.4640	4.2678	6.8000
C	-2.4640	4.2678	13.6000
C	2.4640	0.0000	0.0000
C	2.4640	0.0000	6.8000
C	2.4640	0.0000	13.6000
C	1.2320	2.1339	0.0000
C	1.2320	2.1339	6.8000
C	1.2320	2.1339	13.6000
C	0.0000	4.2678	0.0000
C	0.0000	4.2678	6.8000
C	0.0000	4.2678	13.6000
C	4.9280	0.0000	0.0000
C	4.9280	0.0000	6.8000
C	4.9280	0.0000	13.6000
C	3.6960	2.1339	0.0000
C	3.6960	2.1339	6.8000
C	3.6960	2.1339	13.6000
C	2.4640	4.2678	0.0000
C	2.4640	4.2678	6.8000
C	2.4640	4.2678	13.6000
