128
graphite
Li	2.0146	0.0879	-1.1714
Li	-1.3668	0.3486	4.0436
Li	-0.3717	-0.2113	6.9102
Li	-0.3430	-0.2015	9.6569
Li	0.7349	2.2681	-1.2145
Li	5.6468	6.5362	-0.9678
Li	4.4642	0.1120	-0.9764
Li	-5.0987	6.7070	4.4818
Li	-0.0760	2.4732	4.3486
Li	5.9936	0.2927	4.1720
Li	9.3868	0.1590	-1.0989
Li	3.2198	2.2406	-1.0890
Li	-1.7260	6.4853	-0.9466
Li	1.0866	0.3563	4.2508
Li	2.3064	6.7739	4.3694
Li	-2.5734	2.4336	4.3005
Li	-1.6232	1.9372	6.9015
Li	3.3062	6.1436	7.0962
Li	2.0872	-0.2487	6.9061
Li	-4.0442	6.2021	9.6956
Li	0.8173	1.9731	9.6075
Li	7.0526	-0.1758	9.6217
Li	6.9913	-0.2515	6.8955
Li	0.8603	1.8874	6.9449
Li	-4.0681	6.1667	7.0634
Li	2.0332	-0.1513	9.6095
Li	3.3087	6.2323	9.8900
Li	-1.5682	1.9411	9.5920
Li	-0.4337	4.4081	-1.1138
Li	4.4789	4.4230	-0.7377
Li	6.9559	0.1527	-0.9503
Li	-3.7922	4.5787	4.3574
Li	1.1103	4.6040	4.5163
Li	3.5308	0.2939	4.2298
Li	-2.8923	3.9736	6.9935
Li	2.0735	4.0457	7.2058
Li	4.5804	-0.2390	7.0979
Li	-2.7841	4.0987	9.6545
Li	2.0445	4.0618	9.6968
Li	4.5378	-0.2012	9.7033
Li	2.0441	4.3267	-1.0204
Li	3.2277	6.5068	-0.8868
Li	0.8019	6.5035	-0.8717
Li	3.5594	4.6312	4.3607
Li	2.3649	2.4712	4.2315
Li	4.8078	2.4387	4.1408
Li	-0.3795	4.0357	7.1095
Li	0.8781	6.1482	7.2129
Li	-1.6041	6.1809	7.0773
Li	4.5165	4.0765	9.8540
Li	3.2966	1.9185	9.7414
Li	5.7808	1.9662	9.6770
Li	5.6586	2.2673	-0.8334
Li	8.1417	2.2755	-1.1633
Li	6.9613	4.3586	-0.8690
Li	-0.1798	6.6977	4.3526
Li	-2.6534	6.7099	4.5007
Li	-1.3708	4.5887	4.5038
Li	3.2859	1.8999	7.0017
Li	5.7924	1.8501	6.9469
Li	4.5094	3.9739	7.0151
Li	0.8540	6.1821	9.8090
Li	-1.6276	6.2287	9.6876
Li	-0.3960	4.0659	9.6635
Li	1.9462	1.5089	-1.1246
Li	5.6841	7.9582	-1.1360
Li	-1.7184	7.8852	-0.9981
Li	3.5134	7.4441	4.2500
Li	-0.1433	1.0916	4.1783
Li	7.2367	1.0375	4.1717
Li	-0.4056	1.2108	6.9231
Li	3.3209	7.5636	6.9165
Li	-4.0909	7.5815	7.0041
Li	4.5555	6.9090	9.7675
Li	0.8210	0.5339	9.5564
Li	8.2680	0.5088	9.6876
Li	0.8097	3.6577	-1.1613
Li	4.4553	5.8122	-0.8415
Li	0.7860	7.9425	-0.9923
Li	4.8063	5.3035	4.4512
Li	1.1750	3.1672	4.4939
Li	4.7572	1.0074	4.1121
Li	3.2824	7.9263	-0.9479
Li	3.2904	3.6676	-0.9593
Li	-0.4503	5.7811	-0.9100
Li	2.3033	1.0564	4.1473
Li	2.3426	5.3427	4.4938
Li	6.0353	3.1731	4.2917
Li	-1.6414	3.3609	7.0086
Li	2.0821	5.4437	7.2399
Li	-1.5772	7.5985	7.0470
Li	5.7754	4.7998	9.7729
Li	2.0679	2.6361	9.7035
Li	5.7825	0.5391	9.6520
Li	0.8580	7.5588	7.0169
Li	0.8073	3.2929	7.0878
Li	-2.8408	5.4364	6.9366
Li	3.2877	0.5313	9.7141
Li	3.2611	4.8049	9.7588
Li	7.0319	2.6765	9.6799
Li	4.4131	1.5313	-0.9357
Li	9.3356	1.5767	-1.2318
Li	6.8731	5.7768	-0.9370
Li	1.0600	7.4113	4.3138
Li	-3.8824	7.4302	4.4262
Li	-1.3285	3.1361	4.3797
Li	2.0755	1.1657	6.9640
Li	7.0197	1.1887	6.9585
Li	4.5502	5.3969	7.0989
Li	2.0995	6.9153	9.7555
Li	-2.8088	6.9469	9.6234
Li	-0.3992	2.6777	9.6065
Li	2.0216	5.7663	-0.8823
Li	3.5463	3.2045	4.1755
Li	-0.3838	5.4959	7.1700
Li	4.5466	2.6757	9.8055
Li	6.9219	1.5861	-1.0143
Li	8.1659	3.6803	-1.0246
Li	5.7083	3.6998	-0.8071
Li	-1.4413	7.4106	4.3903
Li	-2.5729	5.3083	4.4830
Li	-0.1519	5.2947	4.5436
Li	4.5550	1.1885	7.0120
Li	5.7019	3.2752	6.9286
Li	3.2873	3.2999	7.0558
Li	-0.3494	6.9015	9.7518
Li	-1.5859	4.8166	9.7445
Li	0.8286	4.7556	9.7111
