13
Li1 C12
Li         0.00000        0.00000        0.00000
C          1.42144        0.00000        0.87786
C          2.84716        0.00000        2.63359
C         -0.71072        1.23101        0.87786
C         -1.42358        2.46571        2.63359
C          1.42358        2.46571        0.87786
C          0.71072        1.23101        2.63359
C          2.84716        0.00000        0.87786
C          1.42144        0.00000        2.63359
C         -1.42358        2.46571        0.87786
C         -0.71072        1.23101        2.63359
C          0.71072        1.23101        0.87786
C          1.42358        2.46571        2.63359
13
Li1 C12
Li         0.00000        0.00000        0.00000
C          1.42144        0.00000        0.91298
C          2.84716        0.00000        2.73893
C         -0.71072        1.23101        0.91298
C         -1.42358        2.46571        2.73893
C          1.42358        2.46571        0.91298
C          0.71072        1.23101        2.73893
C          2.84716        0.00000        0.91298
C          1.42144        0.00000        2.73893
C         -1.42358        2.46571        0.91298
C         -0.71072        1.23101        2.73893
C          0.71072        1.23101        0.91298
C          1.42358        2.46571        2.73893
13
Li1 C12
Li         0.00000        0.00000        0.00000
C          1.42144        0.00000        0.94809
C          2.84716        0.00000        2.84428
C         -0.71072        1.23101        0.94809
C         -1.42358        2.46571        2.84428
C          1.42358        2.46571        0.94809
C          0.71072        1.23101        2.84428
C          2.84716        0.00000        0.94809
C          1.42144        0.00000        2.84428
C         -1.42358        2.46571        0.94809
C         -0.71072        1.23101        2.84428
C          0.71072        1.23101        0.94809
C          1.42358        2.46571        2.84428
13
Li1 C12
Li         0.00000        0.00000        0.00000
C          1.42144        0.00000        0.98321
C          2.84716        0.00000        2.94962
C         -0.71072        1.23101        0.98321
C         -1.42358        2.46571        2.94962
C          1.42358        2.46571        0.98321
C          0.71072        1.23101        2.94962
C          2.84716        0.00000        0.98321
C          1.42144        0.00000        2.94962
C         -1.42358        2.46571        0.98321
C         -0.71072        1.23101        2.94962
C          0.71072        1.23101        0.98321
C          1.42358        2.46571        2.94962
13
Li1 C12
Li         0.00000        0.00000        0.00000
C          1.42144        0.00000        1.01832
C          2.84716        0.00000        3.05496
C         -0.71072        1.23101        1.01832
C         -1.42358        2.46571        3.05496
C          1.42358        2.46571        1.01832
C          0.71072        1.23101        3.05496
C          2.84716        0.00000        1.01832
C          1.42144        0.00000        3.05496
C         -1.42358        2.46571        1.01832
C         -0.71072        1.23101        3.05496
C          0.71072        1.23101        1.01832
C          1.42358        2.46571        3.05496
13
Li1 C12
Li         0.00000        0.00000        0.00000
C          1.42144        0.00000        1.05343
C          2.84716        0.00000        3.16031
C         -0.71072        1.23101        1.05343
C         -1.42358        2.46571        3.16031
C          1.42358        2.46571        1.05343
C          0.71072        1.23101        3.16031
C          2.84716        0.00000        1.05343
C          1.42144        0.00000        3.16031
C         -1.42358        2.46571        1.05343
C         -0.71072        1.23101        3.16031
C          0.71072        1.23101        1.05343
C          1.42358        2.46571        3.16031
13
Li1 C12
Li         0.00000        0.00000        0.00000
C          1.42144        0.00000        1.08855
C          2.84716        0.00000        3.26565
C         -0.71072        1.23101        1.08855
C         -1.42358        2.46571        3.26565
C          1.42358        2.46571        1.08855
C          0.71072        1.23101        3.26565
C          2.84716        0.00000        1.08855
C          1.42144        0.00000        3.26565
C         -1.42358        2.46571        1.08855
C         -0.71072        1.23101        3.26565
C          0.71072        1.23101        1.08855
C          1.42358        2.46571        3.26565
13
Li1 C12
Li         0.00000        0.00000        0.00000
C          1.42144        0.00000        1.12366
C          2.84716        0.00000        3.37099
C         -0.71072        1.23101        1.12366
C         -1.42358        2.46571        3.37099
C          1.42358        2.46571        1.12366
C          0.71072        1.23101        3.37099
C          2.84716        0.00000        1.12366
C          1.42144        0.00000        3.37099
C         -1.42358        2.46571        1.12366
C         -0.71072        1.23101        3.37099
C          0.71072        1.23101        1.12366
C          1.42358        2.46571        3.37099
13
Li1 C12
Li         0.00000        0.00000        0.00000
C          1.42144        0.00000        1.15878
C          2.84716        0.00000        3.47634
C         -0.71072        1.23101        1.15878
C         -1.42358        2.46571        3.47634
C          1.42358        2.46571        1.15878
C          0.71072        1.23101        3.47634
C          2.84716        0.00000        1.15878
C          1.42144        0.00000        3.47634
C         -1.42358        2.46571        1.15878
C         -0.71072        1.23101        3.47634
C          0.71072        1.23101        1.15878
C          1.42358        2.46571        3.47634
13
Li1 C12
Li         0.00000        0.00000        0.00000
C          1.42144        0.00000        1.19389
C          2.84716        0.00000        3.58168
C         -0.71072        1.23101        1.19389
C         -1.42358        2.46571        3.58168
C          1.42358        2.46571        1.19389
C          0.71072        1.23101        3.58168
C          2.84716        0.00000        1.19389
C          1.42144        0.00000        3.58168
C         -1.42358        2.46571        1.19389
C         -0.71072        1.23101        3.58168
C          0.71072        1.23101        1.19389
C          1.42358        2.46571        3.58168
13
Li1 C12
Li         0.00000        0.00000        0.00000
C          1.42144        0.00000        1.22901
C          2.84716        0.00000        3.68702
C         -0.71072        1.23101        1.22901
C         -1.42358        2.46571        3.68702
C          1.42358        2.46571        1.22901
C          0.71072        1.23101        3.68702
C          2.84716        0.00000        1.22901
C          1.42144        0.00000        3.68702
C         -1.42358        2.46571        1.22901
C         -0.71072        1.23101        3.68702
C          0.71072        1.23101        1.22901
C          1.42358        2.46571        3.68702
13
Li1 C12
Li         0.00000        0.00000        0.00000
C          1.42144        0.00000        1.26412
C          2.84716        0.00000        3.79237
C         -0.71072        1.23101        1.26412
C         -1.42358        2.46571        3.79237
C          1.42358        2.46571        1.26412
C          0.71072        1.23101        3.79237
C          2.84716        0.00000        1.26412
C          1.42144        0.00000        3.79237
C         -1.42358        2.46571        1.26412
C         -0.71072        1.23101        3.79237
C          0.71072        1.23101        1.26412
C          1.42358        2.46571        3.79237
13
Li1 C12
Li         0.00000        0.00000        0.00000
C          1.42144        0.00000        1.29924
C          2.84716        0.00000        3.89771
C         -0.71072        1.23101        1.29924
C         -1.42358        2.46571        3.89771
C          1.42358        2.46571        1.29924
C          0.71072        1.23101        3.89771
C          2.84716        0.00000        1.29924
C          1.42144        0.00000        3.89771
C         -1.42358        2.46571        1.29924
C         -0.71072        1.23101        3.89771
C          0.71072        1.23101        1.29924
C          1.42358        2.46571        3.89771
13
Li1 C12
Li         0.00000        0.00000        0.00000
C          1.42144        0.00000        1.33435
C          2.84716        0.00000        4.00305
C         -0.71072        1.23101        1.33435
C         -1.42358        2.46571        4.00305
C          1.42358        2.46571        1.33435
C          0.71072        1.23101        4.00305
C          2.84716        0.00000        1.33435
C          1.42144        0.00000        4.00305
C         -1.42358        2.46571        1.33435
C         -0.71072        1.23101        4.00305
C          0.71072        1.23101        1.33435
C          1.42358        2.46571        4.00305
13
Li1 C12
Li         0.00000        0.00000        0.00000
C          1.42144        0.00000        1.36947
C          2.84716        0.00000        4.10840
C         -0.71072        1.23101        1.36947
C         -1.42358        2.46571        4.10840
C          1.42358        2.46571        1.36947
C          0.71072        1.23101        4.10840
C          2.84716        0.00000        1.36947
C          1.42144        0.00000        4.10840
C         -1.42358        2.46571        1.36947
C         -0.71072        1.23101        4.10840
C          0.71072        1.23101        1.36947
C          1.42358        2.46571        4.10840
13
Li1 C12
Li         0.00000        0.00000        0.00000
C          1.42144        0.00000        1.40458
C          2.84716        0.00000        4.21374
C         -0.71072        1.23101        1.40458
C         -1.42358        2.46571        4.21374
C          1.42358        2.46571        1.40458
C          0.71072        1.23101        4.21374
C          2.84716        0.00000        1.40458
C          1.42144        0.00000        4.21374
C         -1.42358        2.46571        1.40458
C         -0.71072        1.23101        4.21374
C          0.71072        1.23101        1.40458
C          1.42358        2.46571        4.21374
13
Li1 C12
Li         0.00000        0.00000        0.00000
C          1.42144        0.00000        1.43969
C          2.84716        0.00000        4.31908
C         -0.71072        1.23101        1.43969
C         -1.42358        2.46571        4.31908
C          1.42358        2.46571        1.43969
C          0.71072        1.23101        4.31908
C          2.84716        0.00000        1.43969
C          1.42144        0.00000        4.31908
C         -1.42358        2.46571        1.43969
C         -0.71072        1.23101        4.31908
C          0.71072        1.23101        1.43969
C          1.42358        2.46571        4.31908
13
Li1 C12
Li         0.00000        0.00000        0.00000
C          1.42144        0.00000        1.47481
C          2.84716        0.00000        4.42443
C         -0.71072        1.23101        1.47481
C         -1.42358        2.46571        4.42443
C          1.42358        2.46571        1.47481
C          0.71072        1.23101        4.42443
C          2.84716        0.00000        1.47481
C          1.42144        0.00000        4.42443
C         -1.42358        2.46571        1.47481
C         -0.71072        1.23101        4.42443
C          0.71072        1.23101        1.47481
C          1.42358        2.46571        4.42443
13
Li1 C12
Li         0.00000        0.00000        0.00000
C          1.42144        0.00000        1.50992
C          2.84716        0.00000        4.52977
C         -0.71072        1.23101        1.50992
C         -1.42358        2.46571        4.52977
C          1.42358        2.46571        1.50992
C          0.71072        1.23101        4.52977
C          2.84716        0.00000        1.50992
C          1.42144        0.00000        4.52977
C         -1.42358        2.46571        1.50992
C         -0.71072        1.23101        4.52977
C          0.71072        1.23101        1.50992
C          1.42358        2.46571        4.52977
13
Li1 C12
Li         0.00000        0.00000        0.00000
C          1.42144        0.00000        1.54504
C          2.84716        0.00000        4.63511
C         -0.71072        1.23101        1.54504
C         -1.42358        2.46571        4.63511
C          1.42358        2.46571        1.54504
C          0.71072        1.23101        4.63511
C          2.84716        0.00000        1.54504
C          1.42144        0.00000        4.63511
C         -1.42358        2.46571        1.54504
C         -0.71072        1.23101        4.63511
C          0.71072        1.23101        1.54504
C          1.42358        2.46571        4.63511
13
Li1 C12
Li         0.00000        0.00000        0.00000
C          1.42144        0.00000        1.58015
C          2.84716        0.00000        4.74046
C         -0.71072        1.23101        1.58015
C         -1.42358        2.46571        4.74046
C          1.42358        2.46571        1.58015
C          0.71072        1.23101        4.74046
C          2.84716        0.00000        1.58015
C          1.42144        0.00000        4.74046
C         -1.42358        2.46571        1.58015
C         -0.71072        1.23101        4.74046
C          0.71072        1.23101        1.58015
C          1.42358        2.46571        4.74046
13
Li1 C12
Li         0.00000        0.00000        0.00000
C          1.42144        0.00000        1.61527
C          2.84716        0.00000        4.84580
C         -0.71072        1.23101        1.61527
C         -1.42358        2.46571        4.84580
C          1.42358        2.46571        1.61527
C          0.71072        1.23101        4.84580
C          2.84716        0.00000        1.61527
C          1.42144        0.00000        4.84580
C         -1.42358        2.46571        1.61527
C         -0.71072        1.23101        4.84580
C          0.71072        1.23101        1.61527
C          1.42358        2.46571        4.84580
13
Li1 C12
Li         0.00000        0.00000        0.00000
C          1.42144        0.00000        1.65038
C          2.84716        0.00000        4.95115
C         -0.71072        1.23101        1.65038
C         -1.42358        2.46571        4.95115
C          1.42358        2.46571        1.65038
C          0.71072        1.23101        4.95115
C          2.84716        0.00000        1.65038
C          1.42144        0.00000        4.95115
C         -1.42358        2.46571        1.65038
C         -0.71072        1.23101        4.95115
C          0.71072        1.23101        1.65038
C          1.42358        2.46571        4.95115
13
Li1 C12
Li         0.00000        0.00000        0.00000
C          1.42144        0.00000        1.68550
C          2.84716        0.00000        5.05649
C         -0.71072        1.23101        1.68550
C         -1.42358        2.46571        5.05649
C          1.42358        2.46571        1.68550
C          0.71072        1.23101        5.05649
C          2.84716        0.00000        1.68550
C          1.42144        0.00000        5.05649
C         -1.42358        2.46571        1.68550
C         -0.71072        1.23101        5.05649
C          0.71072        1.23101        1.68550
C          1.42358        2.46571        5.05649
13
Li1 C12
Li         0.00000        0.00000        0.00000
C          1.42144        0.00000        1.72061
C          2.84716        0.00000        5.16183
C         -0.71072        1.23101        1.72061
C         -1.42358        2.46571        5.16183
C          1.42358        2.46571        1.72061
C          0.71072        1.23101        5.16183
C          2.84716        0.00000        1.72061
C          1.42144        0.00000        5.16183
C         -1.42358        2.46571        1.72061
C         -0.71072        1.23101        5.16183
C          0.71072        1.23101        1.72061
C          1.42358        2.46571        5.16183
13
Li1 C12
Li         0.00000        0.00000        0.00000
C          1.42144        0.00000        1.75572
C          2.84716        0.00000        5.26717
C         -0.71072        1.23101        1.75572
C         -1.42358        2.46571        5.26717
C          1.42358        2.46571        1.75572
C          0.71072        1.23101        5.26717
C          2.84716        0.00000        1.75572
C          1.42144        0.00000        5.26717
C         -1.42358        2.46571        1.75572
C         -0.71072        1.23101        5.26717
C          0.71072        1.23101        1.75572
C          1.42358        2.46571        5.26717
13
Li1 C12
Li         0.00000        0.00000        0.00000
C          1.42144        0.00000        1.79084
C          2.84716        0.00000        5.37252
C         -0.71072        1.23101        1.79084
C         -1.42358        2.46571        5.37252
C          1.42358        2.46571        1.79084
C          0.71072        1.23101        5.37252
C          2.84716        0.00000        1.79084
C          1.42144        0.00000        5.37252
C         -1.42358        2.46571        1.79084
C         -0.71072        1.23101        5.37252
C          0.71072        1.23101        1.79084
C          1.42358        2.46571        5.37252
13
Li1 C12
Li         0.00000        0.00000        0.00000
C          1.42144        0.00000        1.82595
C          2.84716        0.00000        5.47786
C         -0.71072        1.23101        1.82595
C         -1.42358        2.46571        5.47786
C          1.42358        2.46571        1.82595
C          0.71072        1.23101        5.47786
C          2.84716        0.00000        1.82595
C          1.42144        0.00000        5.47786
C         -1.42358        2.46571        1.82595
C         -0.71072        1.23101        5.47786
C          0.71072        1.23101        1.82595
C          1.42358        2.46571        5.47786
13
Li1 C12
Li         0.00000        0.00000        0.00000
C          1.42144        0.00000        1.86107
C          2.84716        0.00000        5.58321
C         -0.71072        1.23101        1.86107
C         -1.42358        2.46571        5.58321
C          1.42358        2.46571        1.86107
C          0.71072        1.23101        5.58321
C          2.84716        0.00000        1.86107
C          1.42144        0.00000        5.58321
C         -1.42358        2.46571        1.86107
C         -0.71072        1.23101        5.58321
C          0.71072        1.23101        1.86107
C          1.42358        2.46571        5.58321
13
Li1 C12
Li         0.00000        0.00000        0.00000
C          1.42144        0.00000        1.89618
C          2.84716        0.00000        5.68855
C         -0.71072        1.23101        1.89618
C         -1.42358        2.46571        5.68855
C          1.42358        2.46571        1.89618
C          0.71072        1.23101        5.68855
C          2.84716        0.00000        1.89618
C          1.42144        0.00000        5.68855
C         -1.42358        2.46571        1.89618
C         -0.71072        1.23101        5.68855
C          0.71072        1.23101        1.89618
C          1.42358        2.46571        5.68855
13
Li1 C12
Li         0.00000        0.00000        0.00000
C          1.42144        0.00000        1.93130
C          2.84716        0.00000        5.79389
C         -0.71072        1.23101        1.93130
C         -1.42358        2.46571        5.79389
C          1.42358        2.46571        1.93130
C          0.71072        1.23101        5.79389
C          2.84716        0.00000        1.93130
C          1.42144        0.00000        5.79389
C         -1.42358        2.46571        1.93130
C         -0.71072        1.23101        5.79389
C          0.71072        1.23101        1.93130
C          1.42358        2.46571        5.79389
13
Li1 C12
Li         0.00000        0.00000        0.00000
C          1.42144        0.00000        1.96641
C          2.84716        0.00000        5.89924
C         -0.71072        1.23101        1.96641
C         -1.42358        2.46571        5.89924
C          1.42358        2.46571        1.96641
C          0.71072        1.23101        5.89924
C          2.84716        0.00000        1.96641
C          1.42144        0.00000        5.89924
C         -1.42358        2.46571        1.96641
C         -0.71072        1.23101        5.89924
C          0.71072        1.23101        1.96641
C          1.42358        2.46571        5.89924
13
Li1 C12
Li         0.00000        0.00000        0.00000
C          1.42144        0.00000        2.00153
C          2.84716        0.00000        6.00458
C         -0.71072        1.23101        2.00153
C         -1.42358        2.46571        6.00458
C          1.42358        2.46571        2.00153
C          0.71072        1.23101        6.00458
C          2.84716        0.00000        2.00153
C          1.42144        0.00000        6.00458
C         -1.42358        2.46571        2.00153
C         -0.71072        1.23101        6.00458
C          0.71072        1.23101        2.00153
C          1.42358        2.46571        6.00458
13
Li1 C12
Li         0.00000        0.00000        0.00000
C          1.42144        0.00000        2.03664
C          2.84716        0.00000        6.10992
C         -0.71072        1.23101        2.03664
C         -1.42358        2.46571        6.10992
C          1.42358        2.46571        2.03664
C          0.71072        1.23101        6.10992
C          2.84716        0.00000        2.03664
C          1.42144        0.00000        6.10992
C         -1.42358        2.46571        2.03664
C         -0.71072        1.23101        6.10992
C          0.71072        1.23101        2.03664
C          1.42358        2.46571        6.10992
13
Li1 C12
Li         0.00000        0.00000        0.00000
C          1.42144        0.00000        2.07176
C          2.84716        0.00000        6.21527
C         -0.71072        1.23101        2.07176
C         -1.42358        2.46571        6.21527
C          1.42358        2.46571        2.07176
C          0.71072        1.23101        6.21527
C          2.84716        0.00000        2.07176
C          1.42144        0.00000        6.21527
C         -1.42358        2.46571        2.07176
C         -0.71072        1.23101        6.21527
C          0.71072        1.23101        2.07176
C          1.42358        2.46571        6.21527
13
Li1 C12
Li         0.00000        0.00000        0.00000
C          1.42144        0.00000        2.10687
C          2.84716        0.00000        6.32061
C         -0.71072        1.23101        2.10687
C         -1.42358        2.46571        6.32061
C          1.42358        2.46571        2.10687
C          0.71072        1.23101        6.32061
C          2.84716        0.00000        2.10687
C          1.42144        0.00000        6.32061
C         -1.42358        2.46571        2.10687
C         -0.71072        1.23101        6.32061
C          0.71072        1.23101        2.10687
C          1.42358        2.46571        6.32061
13
Li1 C12
Li         0.00000        0.00000        0.00000
C          1.42144        0.00000        2.14199
C          2.84716        0.00000        6.42595
C         -0.71072        1.23101        2.14199
C         -1.42358        2.46571        6.42595
C          1.42358        2.46571        2.14199
C          0.71072        1.23101        6.42595
C          2.84716        0.00000        2.14199
C          1.42144        0.00000        6.42595
C         -1.42358        2.46571        2.14199
C         -0.71072        1.23101        6.42595
C          0.71072        1.23101        2.14199
C          1.42358        2.46571        6.42595
13
Li1 C12
Li         0.00000        0.00000        0.00000
C          1.42144        0.00000        2.17710
C          2.84716        0.00000        6.53130
C         -0.71072        1.23101        2.17710
C         -1.42358        2.46571        6.53130
C          1.42358        2.46571        2.17710
C          0.71072        1.23101        6.53130
C          2.84716        0.00000        2.17710
C          1.42144        0.00000        6.53130
C         -1.42358        2.46571        2.17710
C         -0.71072        1.23101        6.53130
C          0.71072        1.23101        2.17710
C          1.42358        2.46571        6.53130
13
Li1 C12
Li         0.00000        0.00000        0.00000
C          1.42144        0.00000        2.21221
C          2.84716        0.00000        6.63664
C         -0.71072        1.23101        2.21221
C         -1.42358        2.46571        6.63664
C          1.42358        2.46571        2.21221
C          0.71072        1.23101        6.63664
C          2.84716        0.00000        2.21221
C          1.42144        0.00000        6.63664
C         -1.42358        2.46571        2.21221
C         -0.71072        1.23101        6.63664
C          0.71072        1.23101        2.21221
C          1.42358        2.46571        6.63664
13
Li1 C12
Li         0.00000        0.00000        0.00000
C          1.42144        0.00000        2.24733
C          2.84716        0.00000        6.74198
C         -0.71072        1.23101        2.24733
C         -1.42358        2.46571        6.74198
C          1.42358        2.46571        2.24733
C          0.71072        1.23101        6.74198
C          2.84716        0.00000        2.24733
C          1.42144        0.00000        6.74198
C         -1.42358        2.46571        2.24733
C         -0.71072        1.23101        6.74198
C          0.71072        1.23101        2.24733
C          1.42358        2.46571        6.74198
13
Li1 C12
Li         0.00000        0.00000        0.00000
C          1.42144        0.00000        2.28244
C          2.84716        0.00000        6.84733
C         -0.71072        1.23101        2.28244
C         -1.42358        2.46571        6.84733
C          1.42358        2.46571        2.28244
C          0.71072        1.23101        6.84733
C          2.84716        0.00000        2.28244
C          1.42144        0.00000        6.84733
C         -1.42358        2.46571        2.28244
C         -0.71072        1.23101        6.84733
C          0.71072        1.23101        2.28244
C          1.42358        2.46571        6.84733
13
Li1 C12
Li         0.00000        0.00000        0.00000
C          1.42144        0.00000        2.31756
C          2.84716        0.00000        6.95267
C         -0.71072        1.23101        2.31756
C         -1.42358        2.46571        6.95267
C          1.42358        2.46571        2.31756
C          0.71072        1.23101        6.95267
C          2.84716        0.00000        2.31756
C          1.42144        0.00000        6.95267
C         -1.42358        2.46571        2.31756
C         -0.71072        1.23101        6.95267
C          0.71072        1.23101        2.31756
C          1.42358        2.46571        6.95267
13
Li1 C12
Li         0.00000        0.00000        0.00000
C          1.42144        0.00000        2.35267
C          2.84716        0.00000        7.05802
C         -0.71072        1.23101        2.35267
C         -1.42358        2.46571        7.05802
C          1.42358        2.46571        2.35267
C          0.71072        1.23101        7.05802
C          2.84716        0.00000        2.35267
C          1.42144        0.00000        7.05802
C         -1.42358        2.46571        2.35267
C         -0.71072        1.23101        7.05802
C          0.71072        1.23101        2.35267
C          1.42358        2.46571        7.05802
13
Li1 C12
Li         0.00000        0.00000        0.00000
C          1.42144        0.00000        2.38779
C          2.84716        0.00000        7.16336
C         -0.71072        1.23101        2.38779
C         -1.42358        2.46571        7.16336
C          1.42358        2.46571        2.38779
C          0.71072        1.23101        7.16336
C          2.84716        0.00000        2.38779
C          1.42144        0.00000        7.16336
C         -1.42358        2.46571        2.38779
C         -0.71072        1.23101        7.16336
C          0.71072        1.23101        2.38779
C          1.42358        2.46571        7.16336
13
Li1 C12
Li         0.00000        0.00000        0.00000
C          1.42144        0.00000        2.42290
C          2.84716        0.00000        7.26870
C         -0.71072        1.23101        2.42290
C         -1.42358        2.46571        7.26870
C          1.42358        2.46571        2.42290
C          0.71072        1.23101        7.26870
C          2.84716        0.00000        2.42290
C          1.42144        0.00000        7.26870
C         -1.42358        2.46571        2.42290
C         -0.71072        1.23101        7.26870
C          0.71072        1.23101        2.42290
C          1.42358        2.46571        7.26870
13
Li1 C12
Li         0.00000        0.00000        0.00000
C          1.42144        0.00000        2.45802
C          2.84716        0.00000        7.37404
C         -0.71072        1.23101        2.45802
C         -1.42358        2.46571        7.37404
C          1.42358        2.46571        2.45802
C          0.71072        1.23101        7.37404
C          2.84716        0.00000        2.45802
C          1.42144        0.00000        7.37404
C         -1.42358        2.46571        2.45802
C         -0.71072        1.23101        7.37404
C          0.71072        1.23101        2.45802
C          1.42358        2.46571        7.37404
13
Li1 C12
Li         0.00000        0.00000        0.00000
C          1.42144        0.00000        2.49313
C          2.84716        0.00000        7.47939
C         -0.71072        1.23101        2.49313
C         -1.42358        2.46571        7.47939
C          1.42358        2.46571        2.49313
C          0.71072        1.23101        7.47939
C          2.84716        0.00000        2.49313
C          1.42144        0.00000        7.47939
C         -1.42358        2.46571        2.49313
C         -0.71072        1.23101        7.47939
C          0.71072        1.23101        2.49313
C          1.42358        2.46571        7.47939
13
Li1 C12
Li         0.00000        0.00000        0.00000
C          1.42144        0.00000        2.52824
C          2.84716        0.00000        7.58473
C         -0.71072        1.23101        2.52824
C         -1.42358        2.46571        7.58473
C          1.42358        2.46571        2.52824
C          0.71072        1.23101        7.58473
C          2.84716        0.00000        2.52824
C          1.42144        0.00000        7.58473
C         -1.42358        2.46571        2.52824
C         -0.71072        1.23101        7.58473
C          0.71072        1.23101        2.52824
C          1.42358        2.46571        7.58473
13
Li1 C12
Li         0.00000        0.00000        0.00000
C          1.42144        0.00000        2.56336
C          2.84716        0.00000        7.69008
C         -0.71072        1.23101        2.56336
C         -1.42358        2.46571        7.69008
C          1.42358        2.46571        2.56336
C          0.71072        1.23101        7.69008
C          2.84716        0.00000        2.56336
C          1.42144        0.00000        7.69008
C         -1.42358        2.46571        2.56336
C         -0.71072        1.23101        7.69008
C          0.71072        1.23101        2.56336
C          1.42358        2.46571        7.69008
13
Li1 C12
Li         0.00000        0.00000        0.00000
C          1.42144        0.00000        2.59847
C          2.84716        0.00000        7.79542
C         -0.71072        1.23101        2.59847
C         -1.42358        2.46571        7.79542
C          1.42358        2.46571        2.59847
C          0.71072        1.23101        7.79542
C          2.84716        0.00000        2.59847
C          1.42144        0.00000        7.79542
C         -1.42358        2.46571        2.59847
C         -0.71072        1.23101        7.79542
C          0.71072        1.23101        2.59847
C          1.42358        2.46571        7.79542
