19
Li1 C18
Li 0.000000 0.000000 0.000000
C -0.702882 1.217427 1.775937
C -1.455183 2.520451 8.879661
C 1.455183 2.520451 1.775937
C 0.702882 1.217427 8.879661
C 1.405764 0.000000 1.775937
C 2.910366 0.000000 8.879661
C -1.455183 2.520451 1.775937
C -0.702882 1.217427 8.879661
C 0.702882 1.217427 1.775937
C 1.455183 2.520451 8.879661
C 2.910366 0.000000 1.775937
C 1.405764 0.000000 8.879661
C -0.702882 1.217427 5.327799
C -1.455183 2.520451 5.327799
C 1.455183 2.520451 5.327799
C 0.702882 1.217427 5.327799
C 1.405764 0.000000 5.327799
C 2.910366 0.000000 5.327799