19
Li1 C18
Li 0.000000 0.000000 0.000000
C -0.702882 1.217427 1.442948
C -1.455183 2.520451 7.214725
C 1.455183 2.520451 1.442948
C 0.702882 1.217427 7.214725
C 1.405764 0.000000 1.442948
C 2.910366 0.000000 7.214725
C -1.455183 2.520451 1.442948
C -0.702882 1.217427 7.214725
C 0.702882 1.217427 1.442948
C 1.455183 2.520451 7.214725
C 2.910366 0.000000 1.442948
C 1.405764 0.000000 7.214725
C -0.702882 1.217427 4.328837
C -1.455183 2.520451 4.328837
C 1.455183 2.520451 4.328837
C 0.702882 1.217427 4.328837
C 1.405764 0.000000 4.328837
C 2.910366 0.000000 4.328837