19
Li1 C18
Li 0.000000 0.000000 0.000000
C -0.702882 1.217427 1.257955
C -1.455183 2.520451 6.289760
C 1.455183 2.520451 1.257955
C 0.702882 1.217427 6.289760
C 1.405764 0.000000 1.257955
C 2.910366 0.000000 6.289760
C -1.455183 2.520451 1.257955
C -0.702882 1.217427 6.289760
C 0.702882 1.217427 1.257955
C 1.455183 2.520451 6.289760
C 2.910366 0.000000 1.257955
C 1.405764 0.000000 6.289760
C -0.702882 1.217427 3.773858
C -1.455183 2.520451 3.773858
C 1.455183 2.520451 3.773858
C 0.702882 1.217427 3.773858
C 1.405764 0.000000 3.773858
C 2.910366 0.000000 3.773858