13
Li1 C12
Li 0.000000 0.000000 0.000000
C 1.421444 0.000000 1.896183
C 2.847156 0.000000 5.688549
C -0.710722 1.231006 1.896183
C -1.423578 2.465710 5.688549
C 1.423578 2.465710 1.896183
C 0.710722 1.231006 5.688549
C 2.847156 0.000000 1.896183
C 1.421444 0.000000 5.688549
C -1.423578 2.465710 1.896183
C -0.710722 1.231006 5.688549
C 0.710722 1.231006 1.896183
C 1.423578 2.465710 5.688549