13
Li1 C12
Li 0.000000 0.000000 0.000000
C 1.421444 0.000000 1.966412
C 2.847156 0.000000 5.899236
C -0.710722 1.231006 1.966412
C -1.423578 2.465710 5.899236
C 1.423578 2.465710 1.966412
C 0.710722 1.231006 5.899236
C 2.847156 0.000000 1.966412
C 1.421444 0.000000 5.899236
C -1.423578 2.465710 1.966412
C -0.710722 1.231006 5.899236
C 0.710722 1.231006 1.966412
C 1.423578 2.465710 5.899236