13
Li1 C12
Li 0.000000 0.000000 0.000000
C 1.421444 0.000000 0.948092
C 2.847156 0.000000 2.844275
C -0.710722 1.231006 0.948092
C -1.423578 2.465710 2.844275
C 1.423578 2.465710 0.948092
C 0.710722 1.231006 2.844275
C 2.847156 0.000000 0.948092
C 1.421444 0.000000 2.844275
C -1.423578 2.465710 0.948092
C -0.710722 1.231006 2.844275
C 0.710722 1.231006 0.948092
C 1.423578 2.465710 2.844275