13
Li1 C12
Li 0.000000 0.000000 0.000000
C 1.421444 0.000000 1.615267
C 2.847156 0.000000 4.845801
C -0.710722 1.231006 1.615267
C -1.423578 2.465710 4.845801
C 1.423578 2.465710 1.615267
C 0.710722 1.231006 4.845801
C 2.847156 0.000000 1.615267
C 1.421444 0.000000 4.845801
C -1.423578 2.465710 1.615267
C -0.710722 1.231006 4.845801
C 0.710722 1.231006 1.615267
C 1.423578 2.465710 4.845801