19
Li1 C18
Li 0.000000 0.000000 0.000000
C -0.702882 1.217427 1.220956
C -1.455183 2.520451 6.104767
C 1.455183 2.520451 1.220956
C 0.702882 1.217427 6.104767
C 1.405764 0.000000 1.220956
C 2.910366 0.000000 6.104767
C -1.455183 2.520451 1.220956
C -0.702882 1.217427 6.104767
C 0.702882 1.217427 1.220956
C 1.455183 2.520451 6.104767
C 2.910366 0.000000 1.220956
C 1.405764 0.000000 6.104767
C -0.702882 1.217427 3.662862
C -1.455183 2.520451 3.662862
C 1.455183 2.520451 3.662862
C 0.702882 1.217427 3.662862
C 1.405764 0.000000 3.662862
C 2.910366 0.000000 3.662862