19
Li1 C18
Li 0.000000 0.000000 0.000000
C -0.702882 1.217427 2.478911
C -1.455183 2.520451 12.394527
C 1.455183 2.520451 2.478911
C 0.702882 1.217427 12.394527
C 1.405764 0.000000 2.478911
C 2.910366 0.000000 12.394527
C -1.455183 2.520451 2.478911
C -0.702882 1.217427 12.394527
C 0.702882 1.217427 2.478911
C 1.455183 2.520451 12.394527
C 2.910366 0.000000 2.478911
C 1.405764 0.000000 12.394527
C -0.702882 1.217427 7.436719
C -1.455183 2.520451 7.436719
C 1.455183 2.520451 7.436719
C 0.702882 1.217427 7.436719
C 1.405764 0.000000 7.436719
C 2.910366 0.000000 7.436719