19
Li1 C18
Li 0.000000 0.000000 0.000000
C -0.702882 1.217427 1.368951
C -1.455183 2.520451 6.844739
C 1.455183 2.520451 1.368951
C 0.702882 1.217427 6.844739
C 1.405764 0.000000 1.368951
C 2.910366 0.000000 6.844739
C -1.455183 2.520451 1.368951
C -0.702882 1.217427 6.844739
C 0.702882 1.217427 1.368951
C 1.455183 2.520451 6.844739
C 2.910366 0.000000 1.368951
C 1.405764 0.000000 6.844739
C -0.702882 1.217427 4.106845
C -1.455183 2.520451 4.106845
C 1.455183 2.520451 4.106845
C 0.702882 1.217427 4.106845
C 1.405764 0.000000 4.106845
C 2.910366 0.000000 4.106845