19
Li1 C18
Li 0.000000 0.000000 0.000000
C -0.702882 1.217427 1.479947
C -1.455183 2.520451 7.399718
C 1.455183 2.520451 1.479947
C 0.702882 1.217427 7.399718
C 1.405764 0.000000 1.479947
C 2.910366 0.000000 7.399718
C -1.455183 2.520451 1.479947
C -0.702882 1.217427 7.399718
C 0.702882 1.217427 1.479947
C 1.455183 2.520451 7.399718
C 2.910366 0.000000 1.479947
C 1.405764 0.000000 7.399718
C -0.702882 1.217427 4.439832
C -1.455183 2.520451 4.439832
C 1.455183 2.520451 4.439832
C 0.702882 1.217427 4.439832
C 1.405764 0.000000 4.439832
C 2.910366 0.000000 4.439832