19
Li1 C18
Li 0.000000 0.000000 0.000000
C -0.702882 1.217427 1.997929
C -1.455183 2.520451 9.989619
C 1.455183 2.520451 1.997929
C 0.702882 1.217427 9.989619
C 1.405764 0.000000 1.997929
C 2.910366 0.000000 9.989619
C -1.455183 2.520451 1.997929
C -0.702882 1.217427 9.989619
C 0.702882 1.217427 1.997929
C 1.455183 2.520451 9.989619
C 2.910366 0.000000 1.997929
C 1.405764 0.000000 9.989619
C -0.702882 1.217427 5.993774
C -1.455183 2.520451 5.993774
C 1.455183 2.520451 5.993774
C 0.702882 1.217427 5.993774
C 1.405764 0.000000 5.993774
C 2.910366 0.000000 5.993774