19
Li1 C18
Li 0.000000 0.000000 0.000000
C -0.702882 1.217427 0.998964
C -1.455183 2.520451 4.994809
C 1.455183 2.520451 0.998964
C 0.702882 1.217427 4.994809
C 1.405764 0.000000 0.998964
C 2.910366 0.000000 4.994809
C -1.455183 2.520451 0.998964
C -0.702882 1.217427 4.994809
C 0.702882 1.217427 0.998964
C 1.455183 2.520451 4.994809
C 2.910366 0.000000 0.998964
C 1.405764 0.000000 4.994809
C -0.702882 1.217427 2.996887
C -1.455183 2.520451 2.996887
C 1.455183 2.520451 2.996887
C 0.702882 1.217427 2.996887
C 1.405764 0.000000 2.996887
C 2.910366 0.000000 2.996887