19
Li1 C18
Li 0.000000 0.000000 0.000000
C -0.702882 1.217427 2.367915
C -1.455183 2.520451 11.839548
C 1.455183 2.520451 2.367915
C 0.702882 1.217427 11.839548
C 1.405764 0.000000 2.367915
C 2.910366 0.000000 11.839548
C -1.455183 2.520451 2.367915
C -0.702882 1.217427 11.839548
C 0.702882 1.217427 2.367915
C 1.455183 2.520451 11.839548
C 2.910366 0.000000 2.367915
C 1.405764 0.000000 11.839548
C -0.702882 1.217427 7.103732
C -1.455183 2.520451 7.103732
C 1.455183 2.520451 7.103732
C 0.702882 1.217427 7.103732
C 1.405764 0.000000 7.103732
C 2.910366 0.000000 7.103732