19
Li1 C18
Li 0.000000 0.000000 0.000000
C -0.702882 1.217427 2.552909
C -1.455183 2.520451 12.764513
C 1.455183 2.520451 2.552909
C 0.702882 1.217427 12.764513
C 1.405764 0.000000 2.552909
C 2.910366 0.000000 12.764513
C -1.455183 2.520451 2.552909
C -0.702882 1.217427 12.764513
C 0.702882 1.217427 2.552909
C 1.455183 2.520451 12.764513
C 2.910366 0.000000 2.552909
C 1.405764 0.000000 12.764513
C -0.702882 1.217427 7.658711
C -1.455183 2.520451 7.658711
C 1.455183 2.520451 7.658711
C 0.702882 1.217427 7.658711
C 1.405764 0.000000 7.658711
C 2.910366 0.000000 7.658711