19
Li1 C18
Li 0.000000 0.000000 0.000000
C -0.702882 1.217427 2.589907
C -1.455183 2.520451 12.949506
C 1.455183 2.520451 2.589907
C 0.702882 1.217427 12.949506
C 1.405764 0.000000 2.589907
C 2.910366 0.000000 12.949506
C -1.455183 2.520451 2.589907
C -0.702882 1.217427 12.949506
C 0.702882 1.217427 2.589907
C 1.455183 2.520451 12.949506
C 2.910366 0.000000 2.589907
C 1.405764 0.000000 12.949506
C -0.702882 1.217427 7.769707
C -1.455183 2.520451 7.769707
C 1.455183 2.520451 7.769707
C 0.702882 1.217427 7.769707
C 1.405764 0.000000 7.769707
C 2.910366 0.000000 7.769707