19
Li1 C18
Li 0.000000 0.000000 0.000000
C -0.702882 1.217427 1.183958
C -1.455183 2.520451 5.919774
C 1.455183 2.520451 1.183958
C 0.702882 1.217427 5.919774
C 1.405764 0.000000 1.183958
C 2.910366 0.000000 5.919774
C -1.455183 2.520451 1.183958
C -0.702882 1.217427 5.919774
C 0.702882 1.217427 1.183958
C 1.455183 2.520451 5.919774
C 2.910366 0.000000 1.183958
C 1.405764 0.000000 5.919774
C -0.702882 1.217427 3.551866
C -1.455183 2.520451 3.551866
C 1.455183 2.520451 3.551866
C 0.702882 1.217427 3.551866
C 1.405764 0.000000 3.551866
C 2.910366 0.000000 3.551866