19
Li1 C18
Li 0.000000 0.000000 0.000000
C -0.702882 1.217427 2.034927
C -1.455183 2.520451 10.174612
C 1.455183 2.520451 2.034927
C 0.702882 1.217427 10.174612
C 1.405764 0.000000 2.034927
C 2.910366 0.000000 10.174612
C -1.455183 2.520451 2.034927
C -0.702882 1.217427 10.174612
C 0.702882 1.217427 2.034927
C 1.455183 2.520451 10.174612
C 2.910366 0.000000 2.034927
C 1.405764 0.000000 10.174612
C -0.702882 1.217427 6.104770
C -1.455183 2.520451 6.104770
C 1.455183 2.520451 6.104770
C 0.702882 1.217427 6.104770
C 1.405764 0.000000 6.104770
C 2.910366 0.000000 6.104770