36
C36
C 0.000000 0.000000 0.838875
C 0.000000 0.000000 2.516625
C -1.232000 2.133887 0.838875
C -2.464000 4.267773 2.516625
C 2.464000 4.267773 0.838875
C 1.232000 2.133887 2.516625
C 2.464000 0.000000 0.838875
C 4.928000 0.000000 2.516625
C 2.464000 0.000000 2.516625
C 4.928000 0.000000 0.838875
C 2.464000 4.267773 2.516625
C 1.232000 2.133887 0.838875
C -1.232000 2.133887 2.516625
C -2.464000 4.267773 0.838875
C 0.000000 4.267773 0.838875
C 3.696000 2.133887 2.516625
C 3.696000 2.133887 0.838875
C 0.000000 4.267773 2.516625
C 0.000000 1.422590 0.838875
C 3.696000 4.979070 2.516625
C 2.464001 5.690365 0.838875
C 1.231999 0.711295 2.516625
C -2.464001 5.690365 0.838875
C 6.160001 0.711295 2.516625
C -1.232000 3.556476 0.838875
C 4.928000 2.845184 2.516625
C 1.232001 3.556478 0.838875
C 2.463999 2.845181 2.516625
C -0.000001 5.690365 0.838875
C 3.696001 0.711295 2.516625
C 2.464000 1.422590 0.838875
C 1.232000 4.979070 2.516625
C 4.928001 1.422592 0.838875
C -1.232001 4.979068 2.516625
C 3.695999 3.556478 0.838875
C 0.000001 2.845181 2.516625

36
C36
C 0.000000 0.000000 1.006650
C 0.000000 0.000000 3.019950
C -1.232000 2.133887 1.006650
C -2.464000 4.267773 3.019950
C 2.464000 4.267773 1.006650
C 1.232000 2.133887 3.019950
C 2.464000 0.000000 1.006650
C 4.928000 0.000000 3.019950
C 2.464000 0.000000 3.019950
C 4.928000 0.000000 1.006650
C 2.464000 4.267773 3.019950
C 1.232000 2.133887 1.006650
C -1.232000 2.133887 3.019950
C -2.464000 4.267773 1.006650
C 0.000000 4.267773 1.006650
C 3.696000 2.133887 3.019950
C 3.696000 2.133887 1.006650
C 0.000000 4.267773 3.019950
C 0.000000 1.422590 1.006650
C 3.696000 4.979070 3.019950
C 2.464001 5.690365 1.006650
C 1.231999 0.711295 3.019950
C -2.464001 5.690365 1.006650
C 6.160001 0.711295 3.019950
C -1.232000 3.556476 1.006650
C 4.928000 2.845184 3.019950
C 1.232001 3.556478 1.006650
C 2.463999 2.845181 3.019950
C -0.000001 5.690365 1.006650
C 3.696001 0.711295 3.019950
C 2.464000 1.422590 1.006650
C 1.232000 4.979070 3.019950
C 4.928001 1.422592 1.006650
C -1.232001 4.979068 3.019950
C 3.695999 3.556478 1.006650
C 0.000001 2.845181 3.019950

36
C36
C 0.000000 0.000000 1.174425
C 0.000000 0.000000 3.523275
C -1.232000 2.133887 1.174425
C -2.464000 4.267773 3.523275
C 2.464000 4.267773 1.174425
C 1.232000 2.133887 3.523275
C 2.464000 0.000000 1.174425
C 4.928000 0.000000 3.523275
C 2.464000 0.000000 3.523275
C 4.928000 0.000000 1.174425
C 2.464000 4.267773 3.523275
C 1.232000 2.133887 1.174425
C -1.232000 2.133887 3.523275
C -2.464000 4.267773 1.174425
C 0.000000 4.267773 1.174425
C 3.696000 2.133887 3.523275
C 3.696000 2.133887 1.174425
C 0.000000 4.267773 3.523275
C 0.000000 1.422590 1.174425
C 3.696000 4.979070 3.523275
C 2.464001 5.690365 1.174425
C 1.231999 0.711295 3.523275
C -2.464001 5.690365 1.174425
C 6.160001 0.711295 3.523275
C -1.232000 3.556476 1.174425
C 4.928000 2.845184 3.523275
C 1.232001 3.556478 1.174425
C 2.463999 2.845181 3.523275
C -0.000001 5.690365 1.174425
C 3.696001 0.711295 3.523275
C 2.464000 1.422590 1.174425
C 1.232000 4.979070 3.523275
C 4.928001 1.422592 1.174425
C -1.232001 4.979068 3.523275
C 3.695999 3.556478 1.174425
C 0.000001 2.845181 3.523275

36
C36
C 0.000000 0.000000 1.342200
C 0.000000 0.000000 4.026600
C -1.232000 2.133887 1.342200
C -2.464000 4.267773 4.026600
C 2.464000 4.267773 1.342200
C 1.232000 2.133887 4.026600
C 2.464000 0.000000 1.342200
C 4.928000 0.000000 4.026600
C 2.464000 0.000000 4.026600
C 4.928000 0.000000 1.342200
C 2.464000 4.267773 4.026600
C 1.232000 2.133887 1.342200
C -1.232000 2.133887 4.026600
C -2.464000 4.267773 1.342200
C 0.000000 4.267773 1.342200
C 3.696000 2.133887 4.026600
C 3.696000 2.133887 1.342200
C 0.000000 4.267773 4.026600
C 0.000000 1.422590 1.342200
C 3.696000 4.979070 4.026600
C 2.464001 5.690365 1.342200
C 1.231999 0.711295 4.026600
C -2.464001 5.690365 1.342200
C 6.160001 0.711295 4.026600
C -1.232000 3.556476 1.342200
C 4.928000 2.845184 4.026600
C 1.232001 3.556478 1.342200
C 2.463999 2.845181 4.026600
C -0.000001 5.690365 1.342200
C 3.696001 0.711295 4.026600
C 2.464000 1.422590 1.342200
C 1.232000 4.979070 4.026600
C 4.928001 1.422592 1.342200
C -1.232001 4.979068 4.026600
C 3.695999 3.556478 1.342200
C 0.000001 2.845181 4.026600

36
C36
C 0.000000 0.000000 1.509975
C 0.000000 0.000000 4.529925
C -1.232000 2.133887 1.509975
C -2.464000 4.267773 4.529925
C 2.464000 4.267773 1.509975
C 1.232000 2.133887 4.529925
C 2.464000 0.000000 1.509975
C 4.928000 0.000000 4.529925
C 2.464000 0.000000 4.529925
C 4.928000 0.000000 1.509975
C 2.464000 4.267773 4.529925
C 1.232000 2.133887 1.509975
C -1.232000 2.133887 4.529925
C -2.464000 4.267773 1.509975
C 0.000000 4.267773 1.509975
C 3.696000 2.133887 4.529925
C 3.696000 2.133887 1.509975
C 0.000000 4.267773 4.529925
C 0.000000 1.422590 1.509975
C 3.696000 4.979070 4.529925
C 2.464001 5.690365 1.509975
C 1.231999 0.711295 4.529925
C -2.464001 5.690365 1.509975
C 6.160001 0.711295 4.529925
C -1.232000 3.556476 1.509975
C 4.928000 2.845184 4.529925
C 1.232001 3.556478 1.509975
C 2.463999 2.845181 4.529925
C -0.000001 5.690365 1.509975
C 3.696001 0.711295 4.529925
C 2.464000 1.422590 1.509975
C 1.232000 4.979070 4.529925
C 4.928001 1.422592 1.509975
C -1.232001 4.979068 4.529925
C 3.695999 3.556478 1.509975
C 0.000001 2.845181 4.529925

36
C36
C 0.000000 0.000000 1.677750
C 0.000000 0.000000 5.033250
C -1.232000 2.133887 1.677750
C -2.464000 4.267773 5.033250
C 2.464000 4.267773 1.677750
C 1.232000 2.133887 5.033250
C 2.464000 0.000000 1.677750
C 4.928000 0.000000 5.033250
C 2.464000 0.000000 5.033250
C 4.928000 0.000000 1.677750
C 2.464000 4.267773 5.033250
C 1.232000 2.133887 1.677750
C -1.232000 2.133887 5.033250
C -2.464000 4.267773 1.677750
C 0.000000 4.267773 1.677750
C 3.696000 2.133887 5.033250
C 3.696000 2.133887 1.677750
C 0.000000 4.267773 5.033250
C 0.000000 1.422590 1.677750
C 3.696000 4.979070 5.033250
C 2.464001 5.690365 1.677750
C 1.231999 0.711295 5.033250
C -2.464001 5.690365 1.677750
C 6.160001 0.711295 5.033250
C -1.232000 3.556476 1.677750
C 4.928000 2.845184 5.033250
C 1.232001 3.556478 1.677750
C 2.463999 2.845181 5.033250
C -0.000001 5.690365 1.677750
C 3.696001 0.711295 5.033250
C 2.464000 1.422590 1.677750
C 1.232000 4.979070 5.033250
C 4.928001 1.422592 1.677750
C -1.232001 4.979068 5.033250
C 3.695999 3.556478 1.677750
C 0.000001 2.845181 5.033250

36
C36
C 0.000000 0.000000 1.845525
C 0.000000 0.000000 5.536575
C -1.232000 2.133887 1.845525
C -2.464000 4.267773 5.536575
C 2.464000 4.267773 1.845525
C 1.232000 2.133887 5.536575
C 2.464000 0.000000 1.845525
C 4.928000 0.000000 5.536575
C 2.464000 0.000000 5.536575
C 4.928000 0.000000 1.845525
C 2.464000 4.267773 5.536575
C 1.232000 2.133887 1.845525
C -1.232000 2.133887 5.536575
C -2.464000 4.267773 1.845525
C 0.000000 4.267773 1.845525
C 3.696000 2.133887 5.536575
C 3.696000 2.133887 1.845525
C 0.000000 4.267773 5.536575
C 0.000000 1.422590 1.845525
C 3.696000 4.979070 5.536575
C 2.464001 5.690365 1.845525
C 1.231999 0.711295 5.536575
C -2.464001 5.690365 1.845525
C 6.160001 0.711295 5.536575
C -1.232000 3.556476 1.845525
C 4.928000 2.845184 5.536575
C 1.232001 3.556478 1.845525
C 2.463999 2.845181 5.536575
C -0.000001 5.690365 1.845525
C 3.696001 0.711295 5.536575
C 2.464000 1.422590 1.845525
C 1.232000 4.979070 5.536575
C 4.928001 1.422592 1.845525
C -1.232001 4.979068 5.536575
C 3.695999 3.556478 1.845525
C 0.000001 2.845181 5.536575

36
C36
C 0.000000 0.000000 2.013300
C 0.000000 0.000000 6.039900
C -1.232000 2.133887 2.013300
C -2.464000 4.267773 6.039900
C 2.464000 4.267773 2.013300
C 1.232000 2.133887 6.039900
C 2.464000 0.000000 2.013300
C 4.928000 0.000000 6.039900
C 2.464000 0.000000 6.039900
C 4.928000 0.000000 2.013300
C 2.464000 4.267773 6.039900
C 1.232000 2.133887 2.013300
C -1.232000 2.133887 6.039900
C -2.464000 4.267773 2.013300
C 0.000000 4.267773 2.013300
C 3.696000 2.133887 6.039900
C 3.696000 2.133887 2.013300
C 0.000000 4.267773 6.039900
C 0.000000 1.422590 2.013300
C 3.696000 4.979070 6.039900
C 2.464001 5.690365 2.013300
C 1.231999 0.711295 6.039900
C -2.464001 5.690365 2.013300
C 6.160001 0.711295 6.039900
C -1.232000 3.556476 2.013300
C 4.928000 2.845184 6.039900
C 1.232001 3.556478 2.013300
C 2.463999 2.845181 6.039900
C -0.000001 5.690365 2.013300
C 3.696001 0.711295 6.039900
C 2.464000 1.422590 2.013300
C 1.232000 4.979070 6.039900
C 4.928001 1.422592 2.013300
C -1.232001 4.979068 6.039900
C 3.695999 3.556478 2.013300
C 0.000001 2.845181 6.039900

36
C36
C 0.000000 0.000000 2.181075
C 0.000000 0.000000 6.543225
C -1.232000 2.133887 2.181075
C -2.464000 4.267773 6.543225
C 2.464000 4.267773 2.181075
C 1.232000 2.133887 6.543225
C 2.464000 0.000000 2.181075
C 4.928000 0.000000 6.543225
C 2.464000 0.000000 6.543225
C 4.928000 0.000000 2.181075
C 2.464000 4.267773 6.543225
C 1.232000 2.133887 2.181075
C -1.232000 2.133887 6.543225
C -2.464000 4.267773 2.181075
C 0.000000 4.267773 2.181075
C 3.696000 2.133887 6.543225
C 3.696000 2.133887 2.181075
C 0.000000 4.267773 6.543225
C 0.000000 1.422590 2.181075
C 3.696000 4.979070 6.543225
C 2.464001 5.690365 2.181075
C 1.231999 0.711295 6.543225
C -2.464001 5.690365 2.181075
C 6.160001 0.711295 6.543225
C -1.232000 3.556476 2.181075
C 4.928000 2.845184 6.543225
C 1.232001 3.556478 2.181075
C 2.463999 2.845181 6.543225
C -0.000001 5.690365 2.181075
C 3.696001 0.711295 6.543225
C 2.464000 1.422590 2.181075
C 1.232000 4.979070 6.543225
C 4.928001 1.422592 2.181075
C -1.232001 4.979068 6.543225
C 3.695999 3.556478 2.181075
C 0.000001 2.845181 6.543225

36
C36
C 0.000000 0.000000 2.348850
C 0.000000 0.000000 7.046550
C -1.232000 2.133887 2.348850
C -2.464000 4.267773 7.046550
C 2.464000 4.267773 2.348850
C 1.232000 2.133887 7.046550
C 2.464000 0.000000 2.348850
C 4.928000 0.000000 7.046550
C 2.464000 0.000000 7.046550
C 4.928000 0.000000 2.348850
C 2.464000 4.267773 7.046550
C 1.232000 2.133887 2.348850
C -1.232000 2.133887 7.046550
C -2.464000 4.267773 2.348850
C 0.000000 4.267773 2.348850
C 3.696000 2.133887 7.046550
C 3.696000 2.133887 2.348850
C 0.000000 4.267773 7.046550
C 0.000000 1.422590 2.348850
C 3.696000 4.979070 7.046550
C 2.464001 5.690365 2.348850
C 1.231999 0.711295 7.046550
C -2.464001 5.690365 2.348850
C 6.160001 0.711295 7.046550
C -1.232000 3.556476 2.348850
C 4.928000 2.845184 7.046550
C 1.232001 3.556478 2.348850
C 2.463999 2.845181 7.046550
C -0.000001 5.690365 2.348850
C 3.696001 0.711295 7.046550
C 2.464000 1.422590 2.348850
C 1.232000 4.979070 7.046550
C 4.928001 1.422592 2.348850
C -1.232001 4.979068 7.046550
C 3.695999 3.556478 2.348850
C 0.000001 2.845181 7.046550

