36
C36
C 0.000000 0.000000 1.711305
C 0.000000 0.000000 5.133915
C -1.232000 2.133887 1.711305
C -2.464000 4.267773 5.133915
C 2.464000 4.267773 1.711305
C 1.232000 2.133887 5.133915
C 2.464000 0.000000 1.711305
C 4.928000 0.000000 5.133915
C 2.464000 0.000000 5.133915
C 4.928000 0.000000 1.711305
C 2.464000 4.267773 5.133915
C 1.232000 2.133887 1.711305
C -1.232000 2.133887 5.133915
C -2.464000 4.267773 1.711305
C 0.000000 4.267773 1.711305
C 3.696000 2.133887 5.133915
C 3.696000 2.133887 1.711305
C 0.000000 4.267773 5.133915
C 0.000000 1.422590 1.711305
C 3.696000 4.979070 5.133915
C 2.464001 5.690365 1.711305
C 1.231999 0.711295 5.133915
C -2.464001 5.690365 1.711305
C 6.160001 0.711295 5.133915
C -1.232000 3.556476 1.711305
C 4.928000 2.845184 5.133915
C 1.232001 3.556478 1.711305
C 2.463999 2.845181 5.133915
C -0.000001 5.690365 1.711305
C 3.696001 0.711295 5.133915
C 2.464000 1.422590 1.711305
C 1.232000 4.979070 5.133915
C 4.928001 1.422592 1.711305
C -1.232001 4.979068 5.133915
C 3.695999 3.556478 1.711305
C 0.000001 2.845181 5.133915