162

C         -0.70288        1.21743        1.84993
C         -5.77131        9.99621        9.24965
C          5.77131        9.99621        1.84993
C          0.70288        1.21743        9.24965
C          1.40576        0.00000        1.84993
C         11.54263        0.00000        9.24965
C         -5.77131        9.99621        1.84993
C         -0.70288        1.21743        9.24965
C          0.70288        1.21743        1.84993
C          5.77131        9.99621        9.24965
C         11.54263        0.00000        1.84993
C          1.40576        0.00000        9.24965
C         -0.70288        1.21743        5.54979
C         -5.77131        9.99621        5.54979
C          5.77131        9.99621        5.54979
C          0.70288        1.21743        5.54979
C          1.40576        0.00000        5.54979
C         11.54263        0.00000        5.54979
C         -2.86095        4.95531        1.84993
C         -3.61325        6.25833        9.24965
C          3.61325        6.25833        1.84993
C          2.86095        4.95531        9.24965
C          5.72189        0.00000        1.84993
C          7.22650        0.00000        9.24965
C         -3.61325        6.25833        1.84993
C         -2.86095        4.95531        9.24965
C          2.86095        4.95531        1.84993
C          3.61325        6.25833        9.24965
C          7.22650        0.00000        1.84993
C          5.72189        0.00000        9.24965
C         -2.86095        4.95531        5.54979
C         -3.61325        6.25833        5.54979
C          3.61325        6.25833        5.54979
C          2.86095        4.95531        5.54979
C          5.72189        0.00000        5.54979
C          7.22650        0.00000        5.54979
C         -5.01901        8.69318        1.84993
C         -1.45518        2.52045        9.24965
C          1.45518        2.52045        1.84993
C          5.01901        8.69318        9.24965
C         10.03802        0.00000        1.84993
C          2.91037        0.00000        9.24965
C         -1.45518        2.52045        1.84993
C         -5.01901        8.69318        9.24965
C          5.01901        8.69318        1.84993
C          1.45518        2.52045        9.24965
C          2.91037        0.00000        1.84993
C         10.03802        0.00000        9.24965
C         -5.01901        8.69318        5.54979
C         -1.45518        2.52045        5.54979
C          1.45518        2.52045        5.54979
C          5.01901        8.69318        5.54979
C         10.03802        0.00000        5.54979
C          2.91037        0.00000        5.54979
C          3.61325        1.21743        1.84993
C          2.86095        9.99621        9.24965
C         10.08744        2.52045        1.84993
C         -3.61325        8.69318        9.24965
C          5.72189        7.47576        1.84993
C          0.75230        3.73788        9.24965
C          2.86095        9.99621        1.84993
C          3.61325        1.21743        9.24965
C         -3.61325        8.69318        1.84993
C         10.08744        2.52045        9.24965
C          0.75230        3.73788        1.84993
C          5.72189        7.47576        9.24965
C         -0.75230        3.73788        9.24965
C          7.22650        7.47576        1.84993
C         -2.86095        9.99621        9.24965
C          9.33514        1.21743        1.84993
C          3.61325        8.69318        9.24965
C          2.86095        2.52045        1.84993
C          7.22650        7.47576        9.24965
C         -0.75230        3.73788        1.84993
C          9.33514        1.21743        9.24965
C         -2.86095        9.99621        1.84993
C          2.86095        2.52045        9.24965
C          3.61325        8.69318        1.84993
C          3.61325        1.21743        5.54979
C          2.86095        9.99621        5.54979
C         10.08744        2.52045        5.54979
C         -3.61325        8.69318        5.54979
C          5.72189        7.47576        5.54979
C          0.75230        3.73788        5.54979
C         -0.75230        3.73788        5.54979
C          7.22650        7.47576        5.54979
C         -2.86095        9.99621        5.54979
C          9.33514        1.21743        5.54979
C          3.61325        8.69318        5.54979
C          2.86095        2.52045        5.54979
C          1.45518        4.95531        1.84993
C          5.01901        6.25833        9.24965
C          1.45518        9.99621        1.84993
C          5.01901        1.21743        9.24965
C         -2.91037        7.47576        1.84993
C          9.38456        3.73788        9.24965
C          5.01901        6.25833        1.84993
C          1.45518        4.95531        9.24965
C          5.01901        1.21743        1.84993
C          1.45518        9.99621        9.24965
C          9.38456        3.73788        1.84993
C         -2.91037        7.47576        9.24965
C          3.56383        3.73788        9.24965
C          2.91037        7.47576        1.84993
C          7.92938        6.25833        9.24965
C         -1.45518        4.95531        1.84993
C          7.92938        1.21743        9.24965
C         -1.45518        9.99621        1.84993
C          2.91037        7.47576        9.24965
C          3.56383        3.73788        1.84993
C         -1.45518        4.95531        9.24965
C          7.92938        6.25833        1.84993
C         -1.45518        9.99621        9.24965
C          7.92938        1.21743        1.84993
C          1.45518        4.95531        5.54979
C          5.01901        6.25833        5.54979
C          1.45518        9.99621        5.54979
C          5.01901        1.21743        5.54979
C         -2.91037        7.47576        5.54979
C          9.38456        3.73788        5.54979
C          3.56383        3.73788        5.54979
C          2.91037        7.47576        5.54979
C          7.92938        6.25833        5.54979
C         -1.45518        4.95531        5.54979
C          7.92938        1.21743        5.54979
C         -1.45518        9.99621        5.54979
C         -0.70288        8.69318        1.84993
C          7.17708        2.52045        9.24965
C         -0.70288        6.25833        1.84993
C          7.17708        4.95531        9.24965
C          1.40576        7.47576        1.84993
C          5.06843        3.73788        9.24965
C          7.17708        2.52045        1.84993
C         -0.70288        8.69318        9.24965
C          7.17708        4.95531        1.84993
C         -0.70288        6.25833        9.24965
C          5.06843        3.73788        1.84993
C          1.40576        7.47576        9.24965
C          7.87996        3.73788        9.24965
C         -1.40576        7.47576        1.84993
C          5.77131        2.52045        9.24965
C          0.70288        8.69318        1.84993
C          5.77131        4.95531        9.24965
C          0.70288        6.25833        1.84993
C         -1.40576        7.47576        9.24965
C          7.87996        3.73788        1.84993
C          0.70288        8.69318        9.24965
C          5.77131        2.52045        1.84993
C          0.70288        6.25833        9.24965
C          5.77131        4.95531        1.84993
C         -0.70288        8.69318        5.54979
C          7.17708        2.52045        5.54979
C         -0.70288        6.25833        5.54979
C          7.17708        4.95531        5.54979
C          1.40576        7.47576        5.54979
C          5.06843        3.73788        5.54979
C          7.87996        3.73788        5.54979
C         -1.40576        7.47576        5.54979
C          5.77131        2.52045        5.54979
C          0.70288        8.69318        5.54979
C          5.77131        4.95531        5.54979
C          0.70288        6.25833        5.54979
