234
Li_sv C 1 x 1 x 1 supercell
Li  0.0000000000000   0.0000000000000   0.0000000000000
Li  0.0000000000000   0.0000000000000   7.0229001045000
Li -2.1342999951367   3.6967160745358   0.0000000000000
Li -4.2685999838706   7.3934321379814   0.0000000000000
Li  4.2685999839372   7.3934321379814   0.0000000000000
Li  2.1342999951701   3.6967160745358   0.0000000000000
Li  4.2685999903068   0.0000000000000   0.0000000000000
Li  8.5371999678078   0.0000000000000   0.0000000000000
Li -2.1342999951367   3.6967160745358   7.0229001045000
Li -4.2685999838706   7.3934321379814   7.0229001045000
Li  4.2685999839372   7.3934321379814   7.0229001045000
Li  2.1342999951701   3.6967160745358   7.0229001045000
Li  4.2685999903068   0.0000000000000   7.0229001045000
Li  8.5371999678078   0.0000000000000   7.0229001045000
Li  0.0000000064362   7.3934321379814   0.0000000000000
Li  6.4028997421667   3.6967160745358   0.0000000000000
Li  0.0000000064362   7.3934321379814   7.0229001045000
Li  6.4028997421667   3.6967160745358   7.0229001045000
C  1.4214438195921   0.0000000000000   1.7557250261250
C 11.3843555494557   0.0000000000000  12.2900752952414
C -0.7107219033876   1.2310063801800   1.7557250261250
C -5.6921777682805   9.8591413443708  12.2900752952414
C  5.6921777811752   9.8591413443708   1.7557250261250
C  0.7107219162045   1.2310063801800  12.2900752952414
C 11.3843555494557   0.0000000000000   1.7557250261250
C  1.4214438195921   0.0000000000000  12.2900752952414
C -5.6921777682805   9.8591413443708   1.7557250261250
C -0.7107219033876   1.2310063801800  12.2900752952414
C  0.7107219162045   1.2310063801800   1.7557250261250
C  5.6921777811752   9.8591413443708  12.2900752952414
C  1.4214438195921   0.0000000000000   8.7786254817700
C 11.3843555494557   0.0000000000000   5.2671751907414
C -0.7107219033876   1.2310063801800   8.7786254817700
C -5.6921777682805   9.8591413443708   5.2671751907414
C  5.6921777811752   9.8591413443708   8.7786254817700
C  0.7107219162045   1.2310063801800   5.2671751907414
C 11.3843555494557   0.0000000000000   8.7786254817700
C  1.4214438195921   0.0000000000000   5.2671751907414
C -5.6921777682805   9.8591413443708   8.7786254817700
C -0.7107219033876   1.2310063801800   5.2671751907414
C  0.7107219162045   1.2310063801800   8.7786254817700
C  5.6921777811752   9.8591413443708   5.2671751907414
C -0.7128561755446   3.6967160745358   1.7557250261250
C  7.1157555655851   7.3934321379814  12.2900752952414
C  3.5578780229235   8.6244382852683   1.7557250261250
C  2.8450217256794   2.4657096832657  12.2900752952414
C -2.8450214823136   9.8591413443708   1.7557250261250
C  9.2479219480413   1.2310063801800  12.2900752952414
C  7.1157555655851   7.3934321379814   1.7557250261250
C -0.7128561755446   3.6967160745358  12.2900752952414
C  2.8450217256794   2.4657096832657   1.7557250261250
C  3.5578780229235   8.6244382852683  12.2900752952414
C  9.2479219480413   1.2310063801800   1.7557250261250
C -2.8450214823136   9.8591413443708  12.2900752952414
C  3.5578780228902   1.2310063801800  12.2900752952414
C  2.8450221995273   9.8591413443708   1.7557250261250
C  5.6900439315873   7.3934321379814  12.2900752952414
C  0.7128562908302   3.6967160745358   1.7557250261250
C  9.9607772848283   2.4657096832657  12.2900752952414
C -3.5578780228458   8.6244382852683   1.7557250261250
C  2.8450221995273   9.8591413443708  12.2900752952414
C  3.5578780228902   1.2310063801800   1.7557250261250
C  0.7128562908302   3.6967160745358  12.2900752952414
C  5.6900439315873   7.3934321379814   1.7557250261250
C -3.5578780228458   8.6244382852683  12.2900752952414
C  9.9607772848283   2.4657096832657   1.7557250261250
C -0.7128561755446   3.6967160745358   8.7786254817700
C  7.1157555655851   7.3934321379814   5.2671751907414
C  3.5578780229235   8.6244382852683   8.7786254817700
C  2.8450217256794   2.4657096832657   5.2671751907414
C -2.8450214823136   9.8591413443708   8.7786254817700
C  9.2479219480413   1.2310063801800   5.2671751907414
C  7.1157555655851   7.3934321379814   8.7786254817700
C -0.7128561755446   3.6967160745358   5.2671751907414
C  2.8450217256794   2.4657096832657   8.7786254817700
C  3.5578780229235   8.6244382852683   5.2671751907414
C  9.2479219480413   1.2310063801800   8.7786254817700
C -2.8450214823136   9.8591413443708   5.2671751907414
C  3.5578780228902   1.2310063801800   5.2671751907414
C  2.8450221995273   9.8591413443708   8.7786254817700
C  5.6900439315873   7.3934321379814   5.2671751907414
C  0.7128562908302   3.6967160745358   8.7786254817700
C  9.9607772848283   2.4657096832657   5.2671751907414
C -3.5578780228458   8.6244382852683   8.7786254817700
C  2.8450221995273   9.8591413443708   5.2671751907414
C  3.5578780228902   1.2310063801800   8.7786254817700
C  0.7128562908302   3.6967160745358   5.2671751907414
C  5.6900439315873   7.3934321379814   8.7786254817700
C -3.5578780228458   8.6244382852683   5.2671751907414
C  9.9607772848283   2.4657096832657   8.7786254817700
C -2.8471560490263   7.3934321379814   1.7557250261250
C  9.2500553110088   3.6967160745358  12.2900752952414
C  1.4235780277535   4.9277224547157   1.7557250261250
C  4.9793219577567   6.1624259906946  12.2900752952414
C  1.4235782646830   9.8591413443708   1.7557250261250
C  4.9793219577345   1.2310063801800  12.2900752952414
C  9.2500553110088   3.6967160745358   1.7557250261250
C -2.8471560490263   7.3934321379814  12.2900752952414
C  4.9793219577567   6.1624259906946   1.7557250261250
C  1.4235780277535   4.9277224547157  12.2900752952414
C  4.9793219577345   1.2310063801800   1.7557250261250
C  1.4235782646830   9.8591413443708  12.2900752952414
C  7.8264780003912   1.2310063801800  12.2900752952414
C -1.4235777779737   9.8591413443708   1.7557250261250
C  3.5557439300144   3.6967160745358  12.2900752952414
C  2.8471560490929   7.3934321379814   1.7557250261250
C  7.8264775265988   6.1624259906946  12.2900752952414
C -1.4235781429612   4.9277224547157   1.7557250261250
C -1.4235777779737   9.8591413443708  12.2900752952414
C  7.8264780003912   1.2310063801800   1.7557250261250
C  2.8471560490929   7.3934321379814  12.2900752952414
C  3.5557439300144   3.6967160745358   1.7557250261250
C -1.4235781429612   4.9277224547157  12.2900752952414
C  7.8264775265988   6.1624259906946   1.7557250261250
C -2.8471560490263   7.3934321379814   8.7786254817700
C  9.2500553110088   3.6967160745358   5.2671751907414
C  1.4235780277535   4.9277224547157   8.7786254817700
C  4.9793219577567   6.1624259906946   5.2671751907414
C  1.4235782646830   9.8591413443708   8.7786254817700
C  4.9793219577345   1.2310063801800   5.2671751907414
C  9.2500553110088   3.6967160745358   8.7786254817700
C -2.8471560490263   7.3934321379814   5.2671751907414
C  4.9793219577567   6.1624259906946   8.7786254817700
C  1.4235780277535   4.9277224547157   5.2671751907414
C  4.9793219577345   1.2310063801800   8.7786254817700
C  1.4235782646830   9.8591413443708   5.2671751907414
C  7.8264780003912   1.2310063801800   5.2671751907414
C -1.4235777779737   9.8591413443708   8.7786254817700
C  3.5557439300144   3.6967160745358   5.2671751907414
C  2.8471560490929   7.3934321379814   8.7786254817700
C  7.8264775265988   6.1624259906946   5.2671751907414
C -1.4235781429612   4.9277224547157   8.7786254817700
C -1.4235777779737   9.8591413443708   5.2671751907414
C  7.8264780003912   1.2310063801800   8.7786254817700
C  2.8471560490929   7.3934321379814   5.2671751907414
C  3.5557439300144   3.6967160745358   8.7786254817700
C -1.4235781429612   4.9277224547157   5.2671751907414
C  7.8264775265988   6.1624259906946   8.7786254817700
C  5.6900439251511   0.0000000000000   1.7557250261250
C  7.1157560329635   0.0000000000000  12.2900752952414
C -2.8450219625533   4.9277224547157   1.7557250261250
C -3.5578780100511   6.1624259906946  12.2900752952414
C  3.5578780229124   6.1624259906946   1.7557250261250
C  2.8450219625978   4.9277224547157  12.2900752952414
C  7.1157560329635   0.0000000000000   1.7557250261250
C  5.6900439251511   0.0000000000000  12.2900752952414
C -3.5578780100511   6.1624259906946   1.7557250261250
C -2.8450219625533   4.9277224547157  12.2900752952414
C  2.8450219625978   4.9277224547157   1.7557250261250
C  3.5578780229124   6.1624259906946  12.2900752952414
C  5.6900439251511   0.0000000000000   8.7786254817700
C  7.1157560329635   0.0000000000000   5.2671751907414
C -2.8450219625533   4.9277224547157   8.7786254817700
C -3.5578780100511   6.1624259906946   5.2671751907414
C  3.5578780229124   6.1624259906946   8.7786254817700
C  2.8450219625978   4.9277224547157   5.2671751907414
C  7.1157560329635   0.0000000000000   8.7786254817700
C  5.6900439251511   0.0000000000000   5.2671751907414
C -3.5578780100511   6.1624259906946   8.7786254817700
C -2.8450219625533   4.9277224547157   5.2671751907414
C  2.8450219625978   4.9277224547157   8.7786254817700
C  3.5578780229124   6.1624259906946   5.2671751907414
C  1.4214439412805   7.3934321379814   1.7557250261250
C  4.9814557945166   3.6967160745358  12.2900752952414
C -0.7107219673833   8.6244382852683   1.7557250261250
C  7.1136217159862   2.4657096832657  12.2900752952414
C -0.7107217240842   6.1624259906946   1.7557250261250
C  7.1136217095944   4.9277224547157  12.2900752952414
C  4.9814557945166   3.6967160745358   1.7557250261250
C  1.4214439412805   7.3934321379814  12.2900752952414
C  7.1136217159862   2.4657096832657   1.7557250261250
C -0.7107219673833   8.6244382852683  12.2900752952414
C  7.1136217095944   4.9277224547157   1.7557250261250
C -0.7107217240842   6.1624259906946  12.2900752952414
C  5.6921777747501   4.9277224547157  12.2900752952414
C  0.7107219674499   6.1624259906946   1.7557250261250
C  7.8243436770110   3.6967160745358  12.2900752952414
C -1.4214436979037   7.3934321379814   1.7557250261250
C  5.6921777683361   2.4657096832657  12.2900752952414
C  0.7107219674610   8.6244382852683   1.7557250261250
C  0.7107219674499   6.1624259906946  12.2900752952414
C  5.6921777747501   4.9277224547157   1.7557250261250
C -1.4214436979037   7.3934321379814  12.2900752952414
C  7.8243436770110   3.6967160745358   1.7557250261250
C  0.7107219674610   8.6244382852683  12.2900752952414
C  5.6921777683361   2.4657096832657   1.7557250261250
C  1.4214439412805   7.3934321379814   8.7786254817700
C  4.9814557945166   3.6967160745358   5.2671751907414
C -0.7107219673833   8.6244382852683   8.7786254817700
C  7.1136217159862   2.4657096832657   5.2671751907414
C -0.7107217240842   6.1624259906946   8.7786254817700
C  7.1136217095944   4.9277224547157   5.2671751907414
C  4.9814557945166   3.6967160745358   8.7786254817700
C  1.4214439412805   7.3934321379814   5.2671751907414
C  7.1136217159862   2.4657096832657   8.7786254817700
C -0.7107219673833   8.6244382852683   5.2671751907414
C  7.1136217095944   4.9277224547157   8.7786254817700
C -0.7107217240842   6.1624259906946   5.2671751907414
C  5.6921777747501   4.9277224547157   5.2671751907414
C  0.7107219674499   6.1624259906946   8.7786254817700
C  7.8243436770110   3.6967160745358   5.2671751907414
C -1.4214436979037   7.3934321379814   8.7786254817700
C  5.6921777683361   2.4657096832657   5.2671751907414
C  0.7107219674610   8.6244382852683   8.7786254817700
C  0.7107219674499   6.1624259906946   5.2671751907414
C  5.6921777747501   4.9277224547157   8.7786254817700
C -1.4214436979037   7.3934321379814   5.2671751907414
C  7.8243436770110   3.6967160745358   8.7786254817700
C  0.7107219674610   8.6244382852683   5.2671751907414
C  5.6921777683361   2.4657096832657   8.7786254817700
C  9.9586439154579   0.0000000000000   1.7557250261250
C  2.8471562859669   0.0000000000000  12.2900752952414
C -4.9793219576901   8.6244382852683   1.7557250261250
C -1.4235781365694   2.4657096832657  12.2900752952414
C  1.4235781493975   2.4657096832657   1.7557250261250
C  4.9793219577678   8.6244382852683  12.2900752952414
C  2.8471562859669   0.0000000000000   1.7557250261250
C  9.9586439154579   0.0000000000000  12.2900752952414
C -1.4235781365694   2.4657096832657   1.7557250261250
C -4.9793219576901   8.6244382852683  12.2900752952414
C  4.9793219577678   8.6244382852683   1.7557250261250
C  1.4235781493975   2.4657096832657  12.2900752952414
C  9.9586439154579   0.0000000000000   8.7786254817700
C  2.8471562859669   0.0000000000000   5.2671751907414
C -4.9793219576901   8.6244382852683   8.7786254817700
C -1.4235781365694   2.4657096832657   5.2671751907414
C  1.4235781493975   2.4657096832657   8.7786254817700
C  4.9793219577678   8.6244382852683   5.2671751907414
C  2.8471562859669   0.0000000000000   8.7786254817700
C  9.9586439154579   0.0000000000000   5.2671751907414
C -1.4235781365694   2.4657096832657   8.7786254817700
C -4.9793219576901   8.6244382852683   5.2671751907414
C  4.9793219577678   8.6244382852683   8.7786254817700
C  1.4235781493975   2.4657096832657   5.2671751907414
