189
lithium carbide (1/6) 1 x 1 x 1 supercell
Li  0.0000000000000   0.0000000000000   0.0000000000000
Li  0.0000000000000   0.0000000000000   3.6998603289305
Li  0.0000000000000   0.0000000000000   7.3997206689607
Li -2.1580650831731   3.7378783252515   0.0000000000000
Li -4.3161301663463   7.4757566505030   0.0000000000000
Li  4.3161301533979   7.4757566505030   0.0000000000000
Li  2.1580650831731   3.7378783252515   0.0000000000000
Li  4.3161301663463   0.0000000000000   0.0000000000000
Li  8.6322603197442   0.0000000000000   0.0000000000000
Li -2.1580650831731   3.7378783252515   3.6998603289305
Li -4.3161301663463   7.4757566505030   7.3997206689607
Li  4.3161301533979   7.4757566505030   3.6998603289305
Li  2.1580650831731   3.7378783252515   7.3997206689607
Li  4.3161301663463   0.0000000000000   3.6998603289305
Li  8.6322603197442   0.0000000000000   7.3997206689607
Li -4.3161301663463   7.4757566505030   3.6998603289305
Li -2.1580650831731   3.7378783252515   7.3997206689607
Li  2.1580650831731   3.7378783252515   3.6998603289305
Li  4.3161301533979   7.4757566505030   7.3997206689607
Li  8.6322603197442   0.0000000000000   3.6998603289305
Li  4.3161301663463   0.0000000000000   7.3997206689607
Li  0.0000000000000   7.4757566505030   0.0000000000000
Li  6.4741954825904   3.7378783252515   0.0000000000000
Li  0.0000000000000   7.4757566505030   3.6998603289305
Li  6.4741954825904   3.7378783252515   7.3997206689607
Li  6.4741954825904   3.7378783252515   3.6998603289305
Li  0.0000000000000   7.4757566505030   7.3997206689607
C -0.7028818118832   1.2174270099010   1.8499301644653
C -5.7713131916168   9.9962081901262   9.2496500009574
C  5.7713131916168   9.9962081901262   1.8499301644653
C  0.7028818118832   1.2174270099010   9.2496500009574
C  1.4057636237664   0.0000000000000   1.8499301644653
C 11.5426263832336   0.0000000000000   9.2496500009574
C -5.7713131916168   9.9962081901262   1.8499301644653
C -0.7028818118832   1.2174270099010   9.2496500009574
C  0.7028818118832   1.2174270099010   1.8499301644653
C  5.7713131916168   9.9962081901262   9.2496500009574
C 11.5426263832336   0.0000000000000   1.8499301644653
C  1.4057636237664   0.0000000000000   9.2496500009574
C -0.7028818118832   1.2174270099010   5.5497903824000
C -5.7713131916168   9.9962081901262   5.5497903824000
C  5.7713131916168   9.9962081901262   5.5497903824000
C  0.7028818118832   1.2174270099010   5.5497903824000
C  1.4057636237664   0.0000000000000   5.5497903824000
C 11.5426263832336   0.0000000000000   5.5497903824000
C -2.8609468885822   4.9553050996662   1.8499301644653
C -3.6132481084436   6.2583293939020   9.2496500009574
C  3.6132481084436   6.2583293939020   1.8499301644653
C  2.8609468885822   4.9553050996662   9.2496500009574
C  5.7218937901127   0.0000000000000   1.8499301644653
C  7.2264962168873   0.0000000000000   9.2496500009574
C -3.6132481084436   6.2583293939020   1.8499301644653
C -2.8609468885822   4.9553050996662   9.2496500009574
C  2.8609468885822   4.9553050996662   1.8499301644653
C  3.6132481084436   6.2583293939020   9.2496500009574
C  7.2264962168873   0.0000000000000   1.8499301644653
C  5.7218937901127   0.0000000000000   9.2496500009574
C -2.8609468885822   4.9553050996662   5.5497903824000
C -3.6132481084436   6.2583293939020   5.5497903824000
C  3.6132481084436   6.2583293939020   5.5497903824000
C  2.8609468885822   4.9553050996662   5.5497903824000
C  5.7218937901127   0.0000000000000   5.5497903824000
C  7.2264962168873   0.0000000000000   5.5497903824000
C -5.0190119717553   8.6931838958903   1.8499301644653
C -1.4551832648157   2.5204513041369   9.2496500009574
C  1.4551832648157   2.5204513041369   1.8499301644653
C  5.0190119717553   8.6931838958903   9.2496500009574
C 10.0380239435106   0.0000000000000   1.8499301644653
C  2.9103665296314   0.0000000000000   9.2496500009574
C -1.4551832648157   2.5204513041369   1.8499301644653
C -5.0190119717553   8.6931838958903   9.2496500009574
C  5.0190119717553   8.6931838958903   1.8499301644653
C  1.4551832648157   2.5204513041369   9.2496500009574
C  2.9103665296314   0.0000000000000   1.8499301644653
C 10.0380239435106   0.0000000000000   9.2496500009574
C -5.0190119717553   8.6931838958903   5.5497903824000
C -1.4551832648157   2.5204513041369   5.5497903824000
C  1.4551832648157   2.5204513041369   5.5497903824000
C  5.0190119717553   8.6931838958903   5.5497903824000
C 10.0380239435106   0.0000000000000   5.5497903824000
C  2.9103665296314   0.0000000000000   5.5497903824000
C  3.6132483544631   1.2174270099010   1.8499301644653
C  2.8609471281274   9.9962081901262   9.2496500009574
C 10.0874433514889   2.5204513041369   1.8499301644653
C -3.6132483479889   8.6931838958903   9.2496500009574
C  5.7218937901127   7.4757566505030   1.8499301644653
C  0.7523014594067   3.7378783252515   9.2496500009574
C  2.8609471281274   9.9962081901262   1.8499301644653
C  3.6132483544631   1.2174270099010   9.2496500009574
C -3.6132483479889   8.6931838958903   1.8499301644653
C 10.0874433514889   2.5204513041369   9.2496500009574
C  0.7523014594067   3.7378783252515   1.8499301644653
C  5.7218937901127   7.4757566505030   9.2496500009574
C -0.7523014594067   3.7378783252515   9.2496500009574
C  7.2264962168873   7.4757566505030   1.8499301644653
C -2.8609466490369   9.9962081901262   9.2496500009574
C  9.3351421445758   1.2174270099010   1.8499301644653
C  3.6132483479889   8.6931838958903   9.2496500009574
C  2.8609469015305   2.5204513041369   1.8499301644653
C  7.2264962168873   7.4757566505030   9.2496500009574
C -0.7523014594067   3.7378783252515   1.8499301644653
C  9.3351421445758   1.2174270099010   9.2496500009574
C -2.8609466490369   9.9962081901262   1.8499301644653
C  2.8609469015305   2.5204513041369   9.2496500009574
C  3.6132483479889   8.6931838958903   1.8499301644653
C  3.6132483544631   1.2174270099010   5.5497903824000
C  2.8609471281274   9.9962081901262   5.5497903824000
C 10.0874433514889   2.5204513041369   5.5497903824000
C -3.6132483479889   8.6931838958903   5.5497903824000
C  5.7218937901127   7.4757566505030   5.5497903824000
C  0.7523014594067   3.7378783252515   5.5497903824000
C -0.7523014594067   3.7378783252515   5.5497903824000
C  7.2264962168873   7.4757566505030   5.5497903824000
C -2.8609466490369   9.9962081901262   5.5497903824000
C  9.3351421445758   1.2174270099010   5.5497903824000
C  3.6132483479889   8.6931838958903   5.5497903824000
C  2.8609469015305   2.5204513041369   5.5497903824000
C  1.4551832648157   4.9553050996662   1.8499301644653
C  5.0190124443715   6.2583293939020   9.2496500009574
C  1.4551830252705   9.9962081901262   1.8499301644653
C  5.0190119782295   1.2174270099010   9.2496500009574
C -2.9103665425798   7.4757566505030   1.8499301644653
C  9.3845615331314   3.7378783252515   9.2496500009574
C  5.0190124443715   6.2583293939020   1.8499301644653
C  1.4551832648157   4.9553050996662   9.2496500009574
C  5.0190119782295   1.2174270099010   1.8499301644653
C  1.4551830252705   9.9962081901262   9.2496500009574
C  9.3845615331314   3.7378783252515   1.8499301644653
C -2.9103665425798   7.4757566505030   9.2496500009574
C  3.5638287069396   3.7378783252515   9.2496500009574
C  2.9103660505410   7.4757566505030   1.8499301644653
C  7.9293785078609   6.2583293939020   9.2496500009574
C -1.4551832648157   4.9553050996662   1.8499301644653
C  7.9293785078609   1.2174270099010   9.2496500009574
C -1.4551830252705   9.9962081901262   1.8499301644653
C  2.9103660505410   7.4757566505030   9.2496500009574
C  3.5638287069396   3.7378783252515   1.8499301644653
C -1.4551832648157   4.9553050996662   9.2496500009574
C  7.9293785078609   6.2583293939020   1.8499301644653
C -1.4551830252705   9.9962081901262   9.2496500009574
C  7.9293785078609   1.2174270099010   1.8499301644653
C  1.4551832648157   4.9553050996662   5.5497903824000
C  5.0190124443715   6.2583293939020   5.5497903824000
C  1.4551830252705   9.9962081901262   5.5497903824000
C  5.0190119782295   1.2174270099010   5.5497903824000
C -2.9103665425798   7.4757566505030   5.5497903824000
C  9.3845615331314   3.7378783252515   5.5497903824000
C  3.5638287069396   3.7378783252515   5.5497903824000
C  2.9103660505410   7.4757566505030   5.5497903824000
C  7.9293785078609   6.2583293939020   5.5497903824000
C -1.4551832648157   4.9553050996662   5.5497903824000
C  7.9293785078609   1.2174270099010   5.5497903824000
C -1.4551830252705   9.9962081901262   5.5497903824000
C -0.7028818054090   8.6931838958903   1.8499301644653
C  7.1770773009478   2.5204513041369   9.2496500009574
C -0.7028815788122   6.2583293939020   1.8499301644653
C  7.1770772879995   4.9553050996662   9.2496500009574
C  1.4057636237664   7.4757566505030   1.8499301644653
C  5.0684309006431   3.7378783252515   9.2496500009574
C  7.1770773009478   2.5204513041369   1.8499301644653
C -0.7028818054090   8.6931838958903   9.2496500009574
C  7.1770772879995   4.9553050996662   1.8499301644653
C -0.7028815788122   6.2583293939020   9.2496500009574
C  5.0684309006431   3.7378783252515   1.8499301644653
C  1.4057636237664   7.4757566505030   9.2496500009574
C  7.8799591063569   3.7378783252515   9.2496500009574
C -1.4057636237664   7.4757566505030   1.8499301644653
C  5.7713127190005   2.5204513041369   9.2496500009574
C  0.7028818183574   8.6931838958903   1.8499301644653
C  5.7713136642330   4.9553050996662   9.2496500009574
C  0.7028820449542   6.2583293939020   1.8499301644653
C -1.4057636237664   7.4757566505030   9.2496500009574
C  7.8799591063569   3.7378783252515   1.8499301644653
C  0.7028818183574   8.6931838958903   9.2496500009574
C  5.7713127190005   2.5204513041369   1.8499301644653
C  0.7028820449542   6.2583293939020   9.2496500009574
C  5.7713136642330   4.9553050996662   1.8499301644653
C -0.7028818054090   8.6931838958903   5.5497903824000
C  7.1770773009478   2.5204513041369   5.5497903824000
C -0.7028815788122   6.2583293939020   5.5497903824000
C  7.1770772879995   4.9553050996662   5.5497903824000
C  1.4057636237664   7.4757566505030   5.5497903824000
C  5.0684309006431   3.7378783252515   5.5497903824000
C  7.8799591063569   3.7378783252515   5.5497903824000
C -1.4057636237664   7.4757566505030   5.5497903824000
C  5.7713127190005   2.5204513041369   5.5497903824000
C  0.7028818183574   8.6931838958903   5.5497903824000
C  5.7713136642330   4.9553050996662   5.5497903824000
C  0.7028820449542   6.2583293939020   5.5497903824000
