36
C36
C 0.000000 0.000000 1.660972
C 0.000000 0.000000 4.982918
C -1.232000 2.133887 1.660973
C -2.464000 4.267773 4.982918
C 2.464000 4.267773 1.660973
C 1.232000 2.133887 4.982918
C 2.464000 0.000000 1.660973
C 4.928000 0.000000 4.982918
C 2.464000 0.000000 4.982918
C 4.928000 0.000000 1.660973
C 2.464000 4.267773 4.982918
C 1.232000 2.133887 1.660973
C -1.232000 2.133887 4.982918
C -2.464000 4.267773 1.660973
C 0.000000 4.267773 1.660973
C 3.696000 2.133887 4.982918
C 3.696000 2.133887 1.660973
C 0.000000 4.267773 4.982918
C 0.000000 1.422590 1.660973
C 3.696000 4.979070 4.982918
C 2.464001 5.690365 1.660973
C 1.231999 0.711295 4.982918
C -2.464001 5.690365 1.660973
C 6.160001 0.711295 4.982918
C -1.232000 3.556476 1.660973
C 4.928000 2.845184 4.982918
C 1.232001 3.556478 1.660973
C 2.463999 2.845181 4.982918
C -0.000001 5.690365 1.660973
C 3.696001 0.711295 4.982918
C 2.464000 1.422590 1.660973
C 1.232000 4.979070 4.982918
C 4.928001 1.422592 1.660973
C -1.232001 4.979068 4.982918
C 3.695999 3.556478 1.660973
C 0.000001 2.845181 4.98291836
36
C36
C 0.000000 0.000000 1.644195
C 0.000000 0.000000 4.932585
C -1.232000 2.133887 1.644195
C -2.464000 4.267773 4.932585
C 2.464000 4.267773 1.644195
C 1.232000 2.133887 4.932585
C 2.464000 0.000000 1.644195
C 4.928000 0.000000 4.932585
C 2.464000 0.000000 4.932585
C 4.928000 0.000000 1.644195
C 2.464000 4.267773 4.932585
C 1.232000 2.133887 1.644195
C -1.232000 2.133887 4.932585
C -2.464000 4.267773 1.644195
C 0.000000 4.267773 1.644195
C 3.696000 2.133887 4.932585
C 3.696000 2.133887 1.644195
C 0.000000 4.267773 4.932585
C 0.000000 1.422590 1.644195
C 3.696000 4.979070 4.932585
C 2.464001 5.690365 1.644195
C 1.231999 0.711295 4.932585
C -2.464001 5.690365 1.644195
C 6.160001 0.711295 4.932585
C -1.232000 3.556476 1.644195
C 4.928000 2.845184 4.932585
C 1.232001 3.556478 1.644195
C 2.463999 2.845181 4.932585
C -0.000001 5.690365 1.644195
C 3.696001 0.711295 4.932585
C 2.464000 1.422590 1.644195
C 1.232000 4.979070 4.932585
C 4.928001 1.422592 1.644195
C -1.232001 4.979068 4.932585
C 3.695999 3.556478 1.644195
C 0.000001 2.845181 4.93258536
C36
C 0.000000 0.000000 1.627417
C 0.000000 0.000000 4.882252
C -1.232000 2.133887 1.627418
C -2.464000 4.267773 4.882252
C 2.464000 4.267773 1.627418
C 1.232000 2.133887 4.882252
C 2.464000 0.000000 1.627418
C 4.928000 0.000000 4.882252
C 2.464000 0.000000 4.882252
C 4.928000 0.000000 1.627418
C 2.464000 4.267773 4.882253
C 1.232000 2.133887 1.627418
C -1.232000 2.133887 4.882252
C -2.464000 4.267773 1.627418
C 0.000000 4.267773 1.627418
C 3.696000 2.133887 4.882253
C 3.696000 2.133887 1.627418
C 0.000000 4.267773 4.882253
C 0.000000 1.422590 1.627418
C 3.696000 4.979070 4.882253
C 2.464001 5.690365 1.627418
C 1.231999 0.711295 4.882252
C -2.464001 5.690365 1.627418
C 6.160001 0.711295 4.882253
C -1.232000 3.556476 1.627418
C 4.928000 2.845184 4.882253
C 1.232001 3.556478 1.627418
C 2.463999 2.845181 4.882253
C -0.000001 5.690365 1.627418
C 3.696001 0.711295 4.882252
C 2.464000 1.422590 1.627418
C 1.232000 4.979070 4.882253
C 4.928001 1.422592 1.627418
C -1.232001 4.979068 4.882253
C 3.695999 3.556478 1.627418
C 0.000001 2.845181 4.88225236
C36
C 0.000000 0.000000 1.610640
C 0.000000 0.000000 4.831920
C -1.232000 2.133887 1.610640
C -2.464000 4.267773 4.831920
C 2.464000 4.267773 1.610640
C 1.232000 2.133887 4.831920
C 2.464000 0.000000 1.610640
C 4.928000 0.000000 4.831920
C 2.464000 0.000000 4.831920
C 4.928000 0.000000 1.610640
C 2.464000 4.267773 4.831920
C 1.232000 2.133887 1.610640
C -1.232000 2.133887 4.831920
C -2.464000 4.267773 1.610640
C 0.000000 4.267773 1.610640
C 3.696000 2.133887 4.831920
C 3.696000 2.133887 1.610640
C 0.000000 4.267773 4.831920
C 0.000000 1.422590 1.610640
C 3.696000 4.979070 4.831920
C 2.464001 5.690365 1.610640
C 1.231999 0.711295 4.831920
C -2.464001 5.690365 1.610640
C 6.160001 0.711295 4.831920
C -1.232000 3.556476 1.610640
C 4.928000 2.845184 4.831920
C 1.232001 3.556478 1.610640
C 2.463999 2.845181 4.831920
C -0.000001 5.690365 1.610640
C 3.696001 0.711295 4.831920
C 2.464000 1.422590 1.610640
C 1.232000 4.979070 4.831920
C 4.928001 1.422592 1.610640
C -1.232001 4.979068 4.831920
C 3.695999 3.556478 1.610640
C 0.000001 2.845181 4.83192036
C36
C 0.000000 0.000000 1.694528
C 0.000000 0.000000 5.083583
C -1.232000 2.133887 1.694528
C -2.464000 4.267773 5.083583
C 2.464000 4.267773 1.694528
C 1.232000 2.133887 5.083583
C 2.464000 0.000000 1.694528
C 4.928000 0.000000 5.083583
C 2.464000 0.000000 5.083583
C 4.928000 0.000000 1.694528
C 2.464000 4.267773 5.083583
C 1.232000 2.133887 1.694528
C -1.232000 2.133887 5.083583
C -2.464000 4.267773 1.694528
C 0.000000 4.267773 1.694528
C 3.696000 2.133887 5.083583
C 3.696000 2.133887 1.694528
C 0.000000 4.267773 5.083583
C 0.000000 1.422590 1.694528
C 3.696000 4.979070 5.083583
C 2.464001 5.690365 1.694528
C 1.231999 0.711295 5.083583
C -2.464001 5.690365 1.694528
C 6.160001 0.711295 5.083583
C -1.232000 3.556476 1.694528
C 4.928000 2.845184 5.083583
C 1.232001 3.556478 1.694528
C 2.463999 2.845181 5.083583
C -0.000001 5.690365 1.694528
C 3.696001 0.711295 5.083583
C 2.464000 1.422590 1.694528
C 1.232000 4.979070 5.083583
C 4.928001 1.422592 1.694528
C -1.232001 4.979068 5.083583
C 3.695999 3.556478 1.694528
C 0.000001 2.845181 5.08358336
C36
C 0.000000 0.000000 1.711305
C 0.000000 0.000000 5.133915
C -1.232000 2.133887 1.711305
C -2.464000 4.267773 5.133915
C 2.464000 4.267773 1.711305
C 1.232000 2.133887 5.133915
C 2.464000 0.000000 1.711305
C 4.928000 0.000000 5.133915
C 2.464000 0.000000 5.133915
C 4.928000 0.000000 1.711305
C 2.464000 4.267773 5.133915
C 1.232000 2.133887 1.711305
C -1.232000 2.133887 5.133915
C -2.464000 4.267773 1.711305
C 0.000000 4.267773 1.711305
C 3.696000 2.133887 5.133915
C 3.696000 2.133887 1.711305
C 0.000000 4.267773 5.133915
C 0.000000 1.422590 1.711305
C 3.696000 4.979070 5.133915
C 2.464001 5.690365 1.711305
C 1.231999 0.711295 5.133915
C -2.464001 5.690365 1.711305
C 6.160001 0.711295 5.133915
C -1.232000 3.556476 1.711305
C 4.928000 2.845184 5.133915
C 1.232001 3.556478 1.711305
C 2.463999 2.845181 5.133915
C -0.000001 5.690365 1.711305
C 3.696001 0.711295 5.133915
C 2.464000 1.422590 1.711305
C 1.232000 4.979070 5.133915
C 4.928001 1.422592 1.711305
C -1.232001 4.979068 5.133915
C 3.695999 3.556478 1.711305
C 0.000001 2.845181 5.13391536
C36
C 0.000000 0.000000 1.728083
C 0.000000 0.000000 5.184248
C -1.232000 2.133887 1.728083
C -2.464000 4.267773 5.184248
C 2.464000 4.267773 1.728083
C 1.232000 2.133887 5.184248
C 2.464000 0.000000 1.728083
C 4.928000 0.000000 5.184248
C 2.464000 0.000000 5.184248
C 4.928000 0.000000 1.728083
C 2.464000 4.267773 5.184248
C 1.232000 2.133887 1.728083
C -1.232000 2.133887 5.184248
C -2.464000 4.267773 1.728083
C 0.000000 4.267773 1.728083
C 3.696000 2.133887 5.184248
C 3.696000 2.133887 1.728083
C 0.000000 4.267773 5.184248
C 0.000000 1.422590 1.728083
C 3.696000 4.979070 5.184248
C 2.464001 5.690365 1.728083
C 1.231999 0.711295 5.184248
C -2.464001 5.690365 1.728083
C 6.160001 0.711295 5.184248
C -1.232000 3.556476 1.728083
C 4.928000 2.845184 5.184248
C 1.232001 3.556478 1.728083
C 2.463999 2.845181 5.184248
C -0.000001 5.690365 1.728083
C 3.696001 0.711295 5.184248
C 2.464000 1.422590 1.728083
C 1.232000 4.979070 5.184248
C 4.928001 1.422592 1.728083
C -1.232001 4.979068 5.184248
C 3.695999 3.556478 1.728083
C 0.000001 2.845181 5.18424836
C36
C 0.000000 0.000000 1.744860
C 0.000000 0.000000 5.234580
C -1.232000 2.133887 1.744860
C -2.464000 4.267773 5.234580
C 2.464000 4.267773 1.744860
C 1.232000 2.133887 5.234580
C 2.464000 0.000000 1.744860
C 4.928000 0.000000 5.234580
C 2.464000 0.000000 5.234580
C 4.928000 0.000000 1.744860
C 2.464000 4.267773 5.234580
C 1.232000 2.133887 1.744860
C -1.232000 2.133887 5.234580
C -2.464000 4.267773 1.744860
C 0.000000 4.267773 1.744860
C 3.696000 2.133887 5.234580
C 3.696000 2.133887 1.744860
C 0.000000 4.267773 5.234580
C 0.000000 1.422590 1.744860
C 3.696000 4.979070 5.234580
C 2.464001 5.690365 1.744860
C 1.231999 0.711295 5.234580
C -2.464001 5.690365 1.744860
C 6.160001 0.711295 5.234580
C -1.232000 3.556476 1.744860
C 4.928000 2.845184 5.234580
C 1.232001 3.556478 1.744860
C 2.463999 2.845181 5.234580
C -0.000001 5.690365 1.744860
C 3.696001 0.711295 5.234580
C 2.464000 1.422590 1.744860
C 1.232000 4.979070 5.234580
C 4.928001 1.422592 1.744860
C -1.232001 4.979068 5.234580
C 3.695999 3.556478 1.744860
C 0.000001 2.845181 5.23458036
C36
C 0.000000 0.000000 1.677750
C 0.000000 0.000000 5.033250
C -1.232000 2.133887 1.677750
C -2.464000 4.267773 5.033250
C 2.464000 4.267773 1.677750
C 1.232000 2.133887 5.033250
C 2.464000 0.000000 1.677750
C 4.928000 0.000000 5.033250
C 2.464000 0.000000 5.033250
C 4.928000 0.000000 1.677750
C 2.464000 4.267773 5.033250
C 1.232000 2.133887 1.677750
C -1.232000 2.133887 5.033250
C -2.464000 4.267773 1.677750
C 0.000000 4.267773 1.677750
C 3.696000 2.133887 5.033250
C 3.696000 2.133887 1.677750
C 0.000000 4.267773 5.033250
C 0.000000 1.422590 1.677750
C 3.696000 4.979070 5.033250
C 2.464001 5.690365 1.677750
C 1.231999 0.711295 5.033250
C -2.464001 5.690365 1.677750
C 6.160001 0.711295 5.033250
C -1.232000 3.556476 1.677750
C 4.928000 2.845184 5.033250
C 1.232001 3.556478 1.677750
C 2.463999 2.845181 5.033250
C -0.000001 5.690365 1.677750
C 3.696001 0.711295 5.033250
C 2.464000 1.422590 1.677750
C 1.232000 4.979070 5.033250
C 4.928001 1.422592 1.677750
C -1.232001 4.979068 5.033250
C 3.695999 3.556478 1.677750
C 0.000001 2.845181 5.033250